version 3
run General-0-20241209-21:18:49-14280
attr configname General
attr datetime 20241209-21:18:49
attr datetimef 20241209-211849
attr experiment General
attr inifile omnetpp.ini
attr iterationvars ""
attr iterationvarsd ""
attr iterationvarsf ""
attr measurement ""
attr network ethnet
attr processid 14280
attr repetition 0
attr replication #0
attr resultdir results
attr runnumber 0
attr seedset 0
config image-path ../../../../../inet-4.5.0-src/inet4.5/images
config network ethnet
config sim-time-limit 10s
config **.client.numApps 1
config **.client.app[0].typename TcpSessionApp
config **.client.app[0].connectAddress "\"server\""
config **.client.app[0].connectPort 1000
config **.client.app[0].sendBytes 1MB
config **.client.numApps 2
config **.client.app[1].typename TcpSessionApp
config **.client.app[1].connectAddress "\"server\""
config **.client.app[1].connectPort 1000
config **.client.app[1].sendBytes 1MB
config **.client.numApps 3
config **.client.app[2].typename TcpSessionApp
config **.client.app[2].connectAddress "\"server\""
config **.client.app[2].connectPort 1000
config **.client.app[2].sendBytes 1MB
config **.client.numApps 4
config **.client.app[3].typename TcpSessionApp
config **.client.app[3].connectAddress "\"server\""
config **.client.app[3].connectPort 1000
config **.client.app[3].sendBytes 1MB
config **.server.numApps 1
config **.server.app[0].typename TcpEchoApp
config **.server*.app[0].localPort 1000

par ethnet.server.ethg$o[0].channel typename "\"inet.node.ethernet.Eth100M\""
par ethnet.server.ethg$o[0].channel disabled false
attr mutable ""
par ethnet.server.ethg$o[0].channel delay 5e-08s
attr mutable ""
attr unit s
par ethnet.server.ethg$o[0].channel datarate 1e+08bps
attr mutable ""
attr unit bps
par ethnet.server.ethg$o[0].channel ber 0
attr mutable ""
par ethnet.server.ethg$o[0].channel per 0
attr mutable ""
par ethnet.server.ethg$o[0].channel length 10m
attr unit m
par ethnet.client3.ethg$o[0].channel typename "\"inet.node.ethernet.Eth100M\""
par ethnet.client3.ethg$o[0].channel disabled false
attr mutable ""
par ethnet.client3.ethg$o[0].channel delay 5e-08s
attr mutable ""
attr unit s
par ethnet.client3.ethg$o[0].channel datarate 1e+08bps
attr mutable ""
attr unit bps
par ethnet.client3.ethg$o[0].channel ber 0
attr mutable ""
par ethnet.client3.ethg$o[0].channel per 0
attr mutable ""
par ethnet.client3.ethg$o[0].channel length 10m
attr unit m
par ethnet.server.ethg$o[1].channel typename "\"inet.node.ethernet.Eth100M\""
par ethnet.server.ethg$o[1].channel disabled false
attr mutable ""
par ethnet.server.ethg$o[1].channel delay 5e-08s
attr mutable ""
attr unit s
par ethnet.server.ethg$o[1].channel datarate 1e+08bps
attr mutable ""
attr unit bps
par ethnet.server.ethg$o[1].channel ber 0
attr mutable ""
par ethnet.server.ethg$o[1].channel per 0
attr mutable ""
par ethnet.server.ethg$o[1].channel length 10m
attr unit m
par ethnet.client1.ethg$o[0].channel typename "\"inet.node.ethernet.Eth100M\""
par ethnet.client1.ethg$o[0].channel disabled false
attr mutable ""
par ethnet.client1.ethg$o[0].channel delay 5e-08s
attr mutable ""
attr unit s
par ethnet.client1.ethg$o[0].channel datarate 1e+08bps
attr mutable ""
attr unit bps
par ethnet.client1.ethg$o[0].channel ber 0
attr mutable ""
par ethnet.client1.ethg$o[0].channel per 0
attr mutable ""
par ethnet.client1.ethg$o[0].channel length 10m
attr unit m
par ethnet.server.ethg$o[2].channel typename "\"inet.node.ethernet.Eth100M\""
par ethnet.server.ethg$o[2].channel disabled false
attr mutable ""
par ethnet.server.ethg$o[2].channel delay 5e-08s
attr mutable ""
attr unit s
par ethnet.server.ethg$o[2].channel datarate 1e+08bps
attr mutable ""
attr unit bps
par ethnet.server.ethg$o[2].channel ber 0
attr mutable ""
par ethnet.server.ethg$o[2].channel per 0
attr mutable ""
par ethnet.server.ethg$o[2].channel length 10m
attr unit m
par ethnet.client2.ethg$o[0].channel typename "\"inet.node.ethernet.Eth100M\""
par ethnet.client2.ethg$o[0].channel disabled false
attr mutable ""
par ethnet.client2.ethg$o[0].channel delay 5e-08s
attr mutable ""
attr unit s
par ethnet.client2.ethg$o[0].channel datarate 1e+08bps
attr mutable ""
attr unit bps
par ethnet.client2.ethg$o[0].channel ber 0
attr mutable ""
par ethnet.client2.ethg$o[0].channel per 0
attr mutable ""
par ethnet.client2.ethg$o[0].channel length 10m
attr unit m
par ethnet.server.ethg$o[3].channel typename "\"inet.node.ethernet.Eth100M\""
par ethnet.server.ethg$o[3].channel disabled false
attr mutable ""
par ethnet.server.ethg$o[3].channel delay 5e-08s
attr mutable ""
attr unit s
par ethnet.server.ethg$o[3].channel datarate 1e+08bps
attr mutable ""
attr unit bps
par ethnet.server.ethg$o[3].channel ber 0
attr mutable ""
par ethnet.server.ethg$o[3].channel per 0
attr mutable ""
par ethnet.server.ethg$o[3].channel length 10m
attr unit m
par ethnet.client4.ethg$o[0].channel typename "\"inet.node.ethernet.Eth100M\""
par ethnet.client4.ethg$o[0].channel disabled false
attr mutable ""
par ethnet.client4.ethg$o[0].channel delay 5e-08s
attr mutable ""
attr unit s
par ethnet.client4.ethg$o[0].channel datarate 1e+08bps
attr mutable ""
attr unit bps
par ethnet.client4.ethg$o[0].channel ber 0
attr mutable ""
par ethnet.client4.ethg$o[0].channel per 0
attr mutable ""
par ethnet.client4.ethg$o[0].channel length 10m
attr unit m
par ethnet.Configurator typename "\"inet.networklayer.configurator.ipv4.Ipv4FlatNetworkConfigurator\""
par ethnet.Configurator networkAddress "\"192.168.0.0\""
par ethnet.Configurator netmask "\"255.255.0.0\""
par ethnet.server.ethg$i[0].channel typename "\"ned.IdealChannel\""
par ethnet.server.eth[0].phys$o.channel typename "\"ned.IdealChannel\""
par ethnet.server.ethg$i[1].channel typename "\"ned.IdealChannel\""
par ethnet.server.eth[1].phys$o.channel typename "\"ned.IdealChannel\""
par ethnet.server.ethg$i[2].channel typename "\"ned.IdealChannel\""
par ethnet.server.eth[2].phys$o.channel typename "\"ned.IdealChannel\""
par ethnet.server.ethg$i[3].channel typename "\"ned.IdealChannel\""
par ethnet.server.eth[3].phys$o.channel typename "\"ned.IdealChannel\""
par ethnet.server.interfaceTable typename "\"inet.networklayer.common.InterfaceTable\""
par ethnet.server.interfaceTable displayAddresses false
par ethnet.server.cb typename "\"inet.common.MessageDispatcher\""
par ethnet.server.cb displayStringTextFormat "\"processed %p pk (%l)\""
par ethnet.server.cb forwardServiceRegistration true
par ethnet.server.cb forwardProtocolRegistration true
par ethnet.server.bl typename "\"inet.common.MessageDispatcher\""
par ethnet.server.bl displayStringTextFormat "\"processed %p pk (%l)\""
par ethnet.server.bl forwardServiceRegistration true
par ethnet.server.bl forwardProtocolRegistration true
par ethnet.server.ethernet typename "\"inet.linklayer.ethernet.basic.EthernetEncapsulation\""
par ethnet.server.ethernet registerProtocol true
par ethnet.server.ethernet interfaceTableModule "\"ethnet.server.interfaceTable\""
par ethnet.server.ethernet fcsMode "\"declared\""
attr enum declared,computed
par ethnet.server.ethernet stopOperationExtraTime -1s
attr unit s
par ethnet.server.ethernet stopOperationTimeout 2s
attr unit s
scalar ethnet.server.ethernet decapPk:count 12
attr interpolationmode none
attr recordingmode count
attr source decapPk
attr title "packets decapsulated, count"
scalar ethnet.server.ethernet decapPk:sum(packetBytes) 704
attr interpolationmode none
attr recordingmode sum(packetBytes)
attr source decapPk
attr title "packets decapsulated, sum(packetBytes)"
scalar ethnet.server.ethernet encapPk:count 12
attr interpolationmode none
attr recordingmode count
attr source encapPk
attr title "packets encapsulated, count"
scalar ethnet.server.ethernet encapPk:sum(packetBytes) 704
attr interpolationmode none
attr recordingmode sum(packetBytes)
attr source encapPk
attr title "packets encapsulated, sum(packetBytes)"
scalar ethnet.server.ethernet pauseSent:count 0
attr recordingmode count
attr title "pause sent, count"
scalar ethnet.server.ethernet pauseSent:sum 0
attr recordingmode sum
attr title "pause sent, sum"
par ethnet.server.li typename "\"inet.common.MessageDispatcher\""
par ethnet.server.li displayStringTextFormat "\"processed %p pk (%l)\""
par ethnet.server.li forwardServiceRegistration true
par ethnet.server.li forwardProtocolRegistration true
par ethnet.server.lo[0].upperLayerIn.channel typename "\"ned.IdealChannel\""
par ethnet.server.lo[0].lo.upperLayerOut.channel typename "\"ned.IdealChannel\""
par ethnet.server.lo[0].lo typename "\"inet.linklayer.loopback.Loopback\""
par ethnet.server.lo[0].lo interfaceTableModule "\"ethnet.server.interfaceTable\""
par ethnet.server.lo[0].lo mtu 4470B
attr unit B
scalar ethnet.server.lo[0].lo rcvdPkFromHl:count 0
attr interpolationmode none
attr recordingmode count
attr source packetReceivedFromUpper
attr title "packets received from higher layer, count"
scalar ethnet.server.lo[0].lo rcvdPkFromHl:sum(packetBytes) 0
attr interpolationmode none
attr recordingmode sum(packetBytes)
attr source packetReceivedFromUpper
attr title "packets received from higher layer, sum(packetBytes)"
scalar ethnet.server.lo[0].lo passedUpPk:count 0
attr interpolationmode none
attr recordingmode count
attr source packetSentToUpper
attr title "packets passed to higher layer, count"
scalar ethnet.server.lo[0].lo passedUpPk:sum(packetBytes) 0
attr interpolationmode none
attr recordingmode sum(packetBytes)
attr source packetSentToUpper
attr title "packets passed to higher layer, sum(packetBytes)"
par ethnet.server.lo[0] typename "\"inet.linklayer.loopback.LoopbackInterface\""
par ethnet.server.lo[0] displayStringTextFormat "\"%a (%i)\\n%m\""
par ethnet.server.lo[0] recordPcap false
par ethnet.server.lo[0] numPcapRecorders 0
par ethnet.server.lo[0] interfaceTableModule "\"ethnet.server.interfaceTable\""
scalar ethnet.server.lo[0] packetDropInterfaceDown:count 0
attr interpolationmode none
attr recordingmode count
attr source packetDropReasonIsInterfaceDown(packetDropped)
attr title "packet drops: interface down, count"
scalar ethnet.server.lo[0] packetDropInterfaceDown:sum(packetBytes) 0
attr interpolationmode none
attr recordingmode sum(packetBytes)
attr source packetDropReasonIsInterfaceDown(packetDropped)
attr title "packet drops: interface down, sum(packetBytes)"
scalar ethnet.server.lo[0] packetDropNoCarrier:count 0
attr interpolationmode none
attr recordingmode count
attr source packetDropReasonIsNoCarrier(packetDropped)
attr title "packet drops: no carrier, count"
scalar ethnet.server.lo[0] packetDropNoCarrier:sum(packetBytes) 0
attr interpolationmode none
attr recordingmode sum(packetBytes)
attr source packetDropReasonIsNoCarrier(packetDropped)
attr title "packet drops: no carrier, sum(packetBytes)"
par ethnet.server.eth[0].mac.phys$o.channel typename "\"ned.IdealChannel\""
par ethnet.server.eth[0].phys$i.channel typename "\"ned.IdealChannel\""
par ethnet.server.eth[0].upperLayerIn.channel typename "\"ned.IdealChannel\""
par ethnet.server.eth[0].mac.upperLayerOut.channel typename "\"ned.IdealChannel\""
par ethnet.server.eth[0].queue typename "\"inet.linklayer.ethernet.common.EthernetQueue\""
par ethnet.server.eth[0].queue displayStringTextFormat "\"contains %p pk (%l) pushed %u\\npulled %o removed %r dropped %d\""
par ethnet.server.eth[0].queue packetCapacity 1000
par ethnet.server.eth[0].queue dataCapacity -1b
attr unit b
par ethnet.server.eth[0].queue dropperClass "\"inet::queueing::PacketAtCollectionEndDropper\""
par ethnet.server.eth[0].queue comparatorClass "\"inet::EthernetFrameTypeComparator\""
par ethnet.server.eth[0].queue bufferModule "\"\""
scalar ethnet.server.eth[0].queue queueLength:last 0
attr autoWarmupFilter false
attr interpolationmode sample-hold
attr recordingmode last
attr source "warmup(atomic(constant0(packetPushEnded) + count(packetPushStarted) - count(packetPulled) - count(packetRemoved) - count(packetDropped)))"
attr title "queue length, last"
attr unit pk
scalar ethnet.server.eth[0].queue queueLength:max 0
attr autoWarmupFilter false
attr interpolationmode sample-hold
attr recordingmode max
attr source "warmup(atomic(constant0(packetPushEnded) + count(packetPushStarted) - count(packetPulled) - count(packetRemoved) - count(packetDropped)))"
attr title "queue length, max"
attr unit pk
scalar ethnet.server.eth[0].queue queueLength:timeavg 0
attr autoWarmupFilter false
attr interpolationmode sample-hold
attr recordingmode timeavg
attr source "warmup(atomic(constant0(packetPushEnded) + count(packetPushStarted) - count(packetPulled) - count(packetRemoved) - count(packetDropped)))"
attr title "queue length, timeavg"
attr unit pk
scalar ethnet.server.eth[0].queue queueBitLength:last 0
attr autoWarmupFilter false
attr interpolationmode sample-hold
attr recordingmode last
attr source "warmup(atomic(constant0(packetPushEnded) + sum(packetLength(packetPushStarted)) - sum(packetLength(packetPulled)) - sum(packetLength(packetRemoved)) - sum(packetLength(packetDropped))))"
attr title "queue bit length, last"
attr unit b
scalar ethnet.server.eth[0].queue queueBitLength:max 0
attr autoWarmupFilter false
attr interpolationmode sample-hold
attr recordingmode max
attr source "warmup(atomic(constant0(packetPushEnded) + sum(packetLength(packetPushStarted)) - sum(packetLength(packetPulled)) - sum(packetLength(packetRemoved)) - sum(packetLength(packetDropped))))"
attr title "queue bit length, max"
attr unit b
scalar ethnet.server.eth[0].queue queueBitLength:timeavg 0
attr autoWarmupFilter false
attr interpolationmode sample-hold
attr recordingmode timeavg
attr source "warmup(atomic(constant0(packetPushEnded) + sum(packetLength(packetPushStarted)) - sum(packetLength(packetPulled)) - sum(packetLength(packetRemoved)) - sum(packetLength(packetDropped))))"
attr title "queue bit length, timeavg"
attr unit b
statistic ethnet.server.eth[0].queue queueingTime:histogram
field count 3
field mean 0
field stddev 0
field min 0
field max 0
field sum 0
field sqrsum 0
attr interpolationmode none
attr recordingmode histogram
attr source queueingTime(packetPulled)
attr title "queueing times"
attr unit s
bin	-inf	0
bin	-0.5	0
bin	-0.48	0
bin	-0.46	0
bin	-0.44	0
bin	-0.42	0
bin	-0.4	0
bin	-0.38	0
bin	-0.36	0
bin	-0.34	0
bin	-0.32	0
bin	-0.3	0
bin	-0.28	0
bin	-0.26	0
bin	-0.24	0
bin	-0.22	0
bin	-0.2	0
bin	-0.18	0
bin	-0.16	0
bin	-0.14	0
bin	-0.12	0
bin	-0.1	0
bin	-0.08	0
bin	-0.06	0
bin	-0.04	0
bin	-0.02	0
bin	0	3
bin	0.02	0
bin	0.04	0
bin	0.06	0
bin	0.08	0
bin	0.1	0
bin	0.12	0
bin	0.14	0
bin	0.16	0
bin	0.18	0
bin	0.2	0
bin	0.22	0
bin	0.24	0
bin	0.26	0
bin	0.28	0
bin	0.3	0
bin	0.32	0
bin	0.34	0
bin	0.36	0
bin	0.38	0
bin	0.4	0
bin	0.42	0
bin	0.44	0
bin	0.46	0
bin	0.48	0
bin	0.5	0
scalar ethnet.server.eth[0].queue outgoingPackets:count 3
attr recordingmode count
attr source packetPulled
attr title "outgoing packets, count"
attr unit pk
scalar ethnet.server.eth[0].queue outgoingPacketLengths:sum 1840
attr interpolationmode none
attr recordingmode sum
attr source packetLength(packetPulled)
attr title "outgoing packet lengths, sum"
attr unit b
statistic ethnet.server.eth[0].queue outgoingPacketLengths:histogram
field count 3
field mean 613.33333333333
field stddev 36.950417228137
field min 592
field max 656
field sum 1840
field sqrsum 1131264
attr interpolationmode none
attr recordingmode histogram
attr source packetLength(packetPulled)
attr title "outgoing packet lengths"
attr unit b
bin	-inf	0
bin	576	0
bin	578	0
bin	580	0
bin	582	0
bin	584	0
bin	586	0
bin	588	0
bin	590	0
bin	592	2
bin	594	0
bin	596	0
bin	598	0
bin	600	0
bin	602	0
bin	604	0
bin	606	0
bin	608	0
bin	610	0
bin	612	0
bin	614	0
bin	616	0
bin	618	0
bin	620	0
bin	622	0
bin	624	0
bin	626	0
bin	628	0
bin	630	0
bin	632	0
bin	634	0
bin	636	0
bin	638	0
bin	640	0
bin	642	0
bin	644	0
bin	646	0
bin	648	0
bin	650	0
bin	652	0
bin	654	0
bin	656	1
bin	658	0
bin	660	0
bin	662	0
bin	664	0
bin	666	0
bin	668	0
bin	670	0
bin	672	0
statistic ethnet.server.eth[0].queue flowQueueingTime:histogram
field count 0
field mean nan
field stddev nan
field min nan
field max nan
field sum 0
field sqrsum 0
attr interpolationmode none
attr recordingmode histogram
attr source queueingTime(demuxFlow(packetPulled))
attr title "flow queueing times"
attr unit s
bin	-inf	0
bin	0	0
bin	1	0
scalar ethnet.server.eth[0].queue incomingPackets:count 3
attr recordingmode count
attr source packetPushStarted
attr title "incoming packets, count"
attr unit pk
scalar ethnet.server.eth[0].queue incomingPacketLengths:sum 1840
attr interpolationmode none
attr recordingmode sum
attr source packetLength(packetPushStarted)
attr title "incoming packet lengths, sum"
attr unit b
statistic ethnet.server.eth[0].queue incomingPacketLengths:histogram
field count 3
field mean 613.33333333333
field stddev 36.950417228137
field min 592
field max 656
field sum 1840
field sqrsum 1131264
attr interpolationmode none
attr recordingmode histogram
attr source packetLength(packetPushStarted)
attr title "incoming packet lengths"
attr unit b
bin	-inf	0
bin	576	0
bin	578	0
bin	580	0
bin	582	0
bin	584	0
bin	586	0
bin	588	0
bin	590	0
bin	592	2
bin	594	0
bin	596	0
bin	598	0
bin	600	0
bin	602	0
bin	604	0
bin	606	0
bin	608	0
bin	610	0
bin	612	0
bin	614	0
bin	616	0
bin	618	0
bin	620	0
bin	622	0
bin	624	0
bin	626	0
bin	628	0
bin	630	0
bin	632	0
bin	634	0
bin	636	0
bin	638	0
bin	640	0
bin	642	0
bin	644	0
bin	646	0
bin	648	0
bin	650	0
bin	652	0
bin	654	0
bin	656	1
bin	658	0
bin	660	0
bin	662	0
bin	664	0
bin	666	0
bin	668	0
bin	670	0
bin	672	0
scalar ethnet.server.eth[0].queue droppedPacketsQueueOverflow:count 0
attr interpolationmode none
attr recordingmode count
attr source packetDropReasonIsQueueOverflow(packetDropped)
attr title "dropped packets: queue overflow, count"
attr unit pk
scalar ethnet.server.eth[0].queue droppedPacketLengthsQueueOverflow:sum 0
attr interpolationmode none
attr recordingmode sum
attr source packetLength(packetDropReasonIsQueueOverflow(packetDropped))
attr title "dropped packet lengths: queue overflow, sum"
attr unit b
par ethnet.server.eth[0].mac typename "\"inet.linklayer.ethernet.basic.EthernetMac\""
par ethnet.server.eth[0].mac interfaceTableModule "\"ethnet.server.interfaceTable\""
par ethnet.server.eth[0].mac displayStringTextFormat "\"rate: %b\\nsent: %s, rcvd: %r\\nqueue: %q, drop: %d\""
par ethnet.server.eth[0].mac sendRawBytes false
par ethnet.server.eth[0].mac promiscuous false
par ethnet.server.eth[0].mac duplexMode true
par ethnet.server.eth[0].mac mtu 1500B
attr unit B
par ethnet.server.eth[0].mac fcsMode "\"declared\""
attr enum declared,computed
par ethnet.server.eth[0].mac stopOperationExtraTime -1s
attr unit s
par ethnet.server.eth[0].mac stopOperationTimeout 2s
attr unit s
scalar ethnet.server.eth[0].mac "simulated time" 10
scalar ethnet.server.eth[0].mac full-duplex 1
scalar ethnet.server.eth[0].mac "frames/sec sent" 0.3
scalar ethnet.server.eth[0].mac "frames/sec rcvd" 0.3
scalar ethnet.server.eth[0].mac "bits/sec sent" 184
scalar ethnet.server.eth[0].mac "bits/sec rcvd" 184
scalar ethnet.server.eth[0].mac "rx channel idle (%)" 99.9997968
scalar ethnet.server.eth[0].mac "rx channel utilization (%)" 0.0002032
scalar ethnet.server.eth[0].mac txPk:count 3
attr interpolationmode none
attr recordingmode count
attr source packetSentToLower
attr title "packets transmitted, count"
scalar ethnet.server.eth[0].mac txPk:sum(packetBytes) 230
attr interpolationmode none
attr recordingmode sum(packetBytes)
attr source packetSentToLower
attr title "packets transmitted, sum(packetBytes)"
scalar ethnet.server.eth[0].mac packetReceivedFromUpper:count 3
attr interpolationmode none
attr recordingmode count
attr source packetReceivedFromUpper
attr title "packet bytes from higher layer, count"
scalar ethnet.server.eth[0].mac packetReceivedFromUpper:sum(packetBytes) 230
attr interpolationmode none
attr recordingmode sum(packetBytes)
attr source packetReceivedFromUpper
attr title "packet bytes from higher layer, sum(packetBytes)"
scalar ethnet.server.eth[0].mac passedUpPk:count 3
attr interpolationmode none
attr recordingmode count
attr source packetSentToUpper
attr title "packets passed to higher layer, count"
scalar ethnet.server.eth[0].mac passedUpPk:sum(packetBytes) 230
attr interpolationmode none
attr recordingmode sum(packetBytes)
attr source packetSentToUpper
attr title "packets passed to higher layer, sum(packetBytes)"
scalar ethnet.server.eth[0].mac packetDropIncorrectlyReceived:count 0
attr interpolationmode none
attr recordingmode count
attr source packetDropReasonIsIncorrectlyReceived(packetDropped)
attr title "packet drop: incorrectly received, count"
scalar ethnet.server.eth[0].mac packetDropIncorrectlyReceived:sum(packetBytes) 0
attr interpolationmode none
attr recordingmode sum(packetBytes)
attr source packetDropReasonIsIncorrectlyReceived(packetDropped)
attr title "packet drop: incorrectly received, sum(packetBytes)"
scalar ethnet.server.eth[0].mac packetDropInterfaceDown:count 0
attr interpolationmode none
attr recordingmode count
attr source packetDropReasonIsInterfaceDown(packetDropped)
attr title "packet drop: interface down, count"
scalar ethnet.server.eth[0].mac packetDropInterfaceDown:sum(packetBytes) 0
attr interpolationmode none
attr recordingmode sum(packetBytes)
attr source packetDropReasonIsInterfaceDown(packetDropped)
attr title "packet drop: interface down, sum(packetBytes)"
scalar ethnet.server.eth[0].mac packetDropNotAddressedToUs:count 0
attr interpolationmode none
attr recordingmode count
attr source packetDropReasonIsNotAddressedToUs(packetDropped)
attr title "packet drop: not addressed to us, count"
scalar ethnet.server.eth[0].mac packetDropNotAddressedToUs:sum(packetBytes) 0
attr interpolationmode none
attr recordingmode sum(packetBytes)
attr source packetDropReasonIsNotAddressedToUs(packetDropped)
attr title "packet drop: not addressed to us, sum(packetBytes)"
scalar ethnet.server.eth[0].mac rxPausePkUnits:count 0
attr interpolationmode none
attr recordingmode count
attr title "pause units received, count"
scalar ethnet.server.eth[0].mac rxPausePkUnits:sum 0
attr interpolationmode none
attr recordingmode sum
attr title "pause units received, sum"
scalar ethnet.server.eth[0].mac txPausePkUnits:count 0
attr interpolationmode none
attr recordingmode count
attr title "pause units sent, count"
scalar ethnet.server.eth[0].mac txPausePkUnits:sum 0
attr interpolationmode none
attr recordingmode sum
attr title "pause units sent, sum"
scalar ethnet.server.eth[0].mac rxPkOk:count 3
attr interpolationmode none
attr recordingmode count
attr source rxPkOk
attr title "packets received OK, count"
scalar ethnet.server.eth[0].mac rxPkOk:sum(packetBytes) 230
attr interpolationmode none
attr recordingmode sum(packetBytes)
attr source rxPkOk
attr title "packets received OK, sum(packetBytes)"
par ethnet.server.eth[0] typename "\"inet.linklayer.ethernet.EthernetInterface\""
par ethnet.server.eth[0] displayStringTextFormat "\"%a (%i)\\n%m\""
par ethnet.server.eth[0] recordPcap false
par ethnet.server.eth[0] numPcapRecorders 0
par ethnet.server.eth[0] interfaceTableModule "\"ethnet.server.interfaceTable\""
par ethnet.server.eth[0] protocol "\"ethernetmac\""
par ethnet.server.eth[0] address "\"0A-AA-00-00-00-01\""
attr mutable ""
par ethnet.server.eth[0] duplexMode true
par ethnet.server.eth[0] csmacdSupport false
par ethnet.server.eth[0] bitrate 0bps
attr unit bps
par ethnet.server.eth[0] fcsMode "\"declared\""
attr enum declared,computed
scalar ethnet.server.eth[0] packetDropInterfaceDown:count 0
attr interpolationmode none
attr recordingmode count
attr source packetDropReasonIsInterfaceDown(packetDropped)
attr title "packet drops: interface down, count"
scalar ethnet.server.eth[0] packetDropInterfaceDown:sum(packetBytes) 0
attr interpolationmode none
attr recordingmode sum(packetBytes)
attr source packetDropReasonIsInterfaceDown(packetDropped)
attr title "packet drops: interface down, sum(packetBytes)"
scalar ethnet.server.eth[0] packetDropNoCarrier:count 0
attr interpolationmode none
attr recordingmode count
attr source packetDropReasonIsNoCarrier(packetDropped)
attr title "packet drops: no carrier, count"
scalar ethnet.server.eth[0] packetDropNoCarrier:sum(packetBytes) 0
attr interpolationmode none
attr recordingmode sum(packetBytes)
attr source packetDropReasonIsNoCarrier(packetDropped)
attr title "packet drops: no carrier, sum(packetBytes)"
par ethnet.server.eth[1].mac.phys$o.channel typename "\"ned.IdealChannel\""
par ethnet.server.eth[1].phys$i.channel typename "\"ned.IdealChannel\""
par ethnet.server.eth[1].upperLayerIn.channel typename "\"ned.IdealChannel\""
par ethnet.server.eth[1].mac.upperLayerOut.channel typename "\"ned.IdealChannel\""
par ethnet.server.eth[1].queue typename "\"inet.linklayer.ethernet.common.EthernetQueue\""
par ethnet.server.eth[1].queue displayStringTextFormat "\"contains %p pk (%l) pushed %u\\npulled %o removed %r dropped %d\""
par ethnet.server.eth[1].queue packetCapacity 1000
par ethnet.server.eth[1].queue dataCapacity -1b
attr unit b
par ethnet.server.eth[1].queue dropperClass "\"inet::queueing::PacketAtCollectionEndDropper\""
par ethnet.server.eth[1].queue comparatorClass "\"inet::EthernetFrameTypeComparator\""
par ethnet.server.eth[1].queue bufferModule "\"\""
scalar ethnet.server.eth[1].queue queueLength:last 0
attr autoWarmupFilter false
attr interpolationmode sample-hold
attr recordingmode last
attr source "warmup(atomic(constant0(packetPushEnded) + count(packetPushStarted) - count(packetPulled) - count(packetRemoved) - count(packetDropped)))"
attr title "queue length, last"
attr unit pk
scalar ethnet.server.eth[1].queue queueLength:max 0
attr autoWarmupFilter false
attr interpolationmode sample-hold
attr recordingmode max
attr source "warmup(atomic(constant0(packetPushEnded) + count(packetPushStarted) - count(packetPulled) - count(packetRemoved) - count(packetDropped)))"
attr title "queue length, max"
attr unit pk
scalar ethnet.server.eth[1].queue queueLength:timeavg 0
attr autoWarmupFilter false
attr interpolationmode sample-hold
attr recordingmode timeavg
attr source "warmup(atomic(constant0(packetPushEnded) + count(packetPushStarted) - count(packetPulled) - count(packetRemoved) - count(packetDropped)))"
attr title "queue length, timeavg"
attr unit pk
scalar ethnet.server.eth[1].queue queueBitLength:last 0
attr autoWarmupFilter false
attr interpolationmode sample-hold
attr recordingmode last
attr source "warmup(atomic(constant0(packetPushEnded) + sum(packetLength(packetPushStarted)) - sum(packetLength(packetPulled)) - sum(packetLength(packetRemoved)) - sum(packetLength(packetDropped))))"
attr title "queue bit length, last"
attr unit b
scalar ethnet.server.eth[1].queue queueBitLength:max 0
attr autoWarmupFilter false
attr interpolationmode sample-hold
attr recordingmode max
attr source "warmup(atomic(constant0(packetPushEnded) + sum(packetLength(packetPushStarted)) - sum(packetLength(packetPulled)) - sum(packetLength(packetRemoved)) - sum(packetLength(packetDropped))))"
attr title "queue bit length, max"
attr unit b
scalar ethnet.server.eth[1].queue queueBitLength:timeavg 0
attr autoWarmupFilter false
attr interpolationmode sample-hold
attr recordingmode timeavg
attr source "warmup(atomic(constant0(packetPushEnded) + sum(packetLength(packetPushStarted)) - sum(packetLength(packetPulled)) - sum(packetLength(packetRemoved)) - sum(packetLength(packetDropped))))"
attr title "queue bit length, timeavg"
attr unit b
statistic ethnet.server.eth[1].queue queueingTime:histogram
field count 3
field mean 0
field stddev 0
field min 0
field max 0
field sum 0
field sqrsum 0
attr interpolationmode none
attr recordingmode histogram
attr source queueingTime(packetPulled)
attr title "queueing times"
attr unit s
bin	-inf	0
bin	-0.5	0
bin	-0.48	0
bin	-0.46	0
bin	-0.44	0
bin	-0.42	0
bin	-0.4	0
bin	-0.38	0
bin	-0.36	0
bin	-0.34	0
bin	-0.32	0
bin	-0.3	0
bin	-0.28	0
bin	-0.26	0
bin	-0.24	0
bin	-0.22	0
bin	-0.2	0
bin	-0.18	0
bin	-0.16	0
bin	-0.14	0
bin	-0.12	0
bin	-0.1	0
bin	-0.08	0
bin	-0.06	0
bin	-0.04	0
bin	-0.02	0
bin	0	3
bin	0.02	0
bin	0.04	0
bin	0.06	0
bin	0.08	0
bin	0.1	0
bin	0.12	0
bin	0.14	0
bin	0.16	0
bin	0.18	0
bin	0.2	0
bin	0.22	0
bin	0.24	0
bin	0.26	0
bin	0.28	0
bin	0.3	0
bin	0.32	0
bin	0.34	0
bin	0.36	0
bin	0.38	0
bin	0.4	0
bin	0.42	0
bin	0.44	0
bin	0.46	0
bin	0.48	0
bin	0.5	0
scalar ethnet.server.eth[1].queue outgoingPackets:count 3
attr recordingmode count
attr source packetPulled
attr title "outgoing packets, count"
attr unit pk
scalar ethnet.server.eth[1].queue outgoingPacketLengths:sum 1840
attr interpolationmode none
attr recordingmode sum
attr source packetLength(packetPulled)
attr title "outgoing packet lengths, sum"
attr unit b
statistic ethnet.server.eth[1].queue outgoingPacketLengths:histogram
field count 3
field mean 613.33333333333
field stddev 36.950417228137
field min 592
field max 656
field sum 1840
field sqrsum 1131264
attr interpolationmode none
attr recordingmode histogram
attr source packetLength(packetPulled)
attr title "outgoing packet lengths"
attr unit b
bin	-inf	0
bin	576	0
bin	578	0
bin	580	0
bin	582	0
bin	584	0
bin	586	0
bin	588	0
bin	590	0
bin	592	2
bin	594	0
bin	596	0
bin	598	0
bin	600	0
bin	602	0
bin	604	0
bin	606	0
bin	608	0
bin	610	0
bin	612	0
bin	614	0
bin	616	0
bin	618	0
bin	620	0
bin	622	0
bin	624	0
bin	626	0
bin	628	0
bin	630	0
bin	632	0
bin	634	0
bin	636	0
bin	638	0
bin	640	0
bin	642	0
bin	644	0
bin	646	0
bin	648	0
bin	650	0
bin	652	0
bin	654	0
bin	656	1
bin	658	0
bin	660	0
bin	662	0
bin	664	0
bin	666	0
bin	668	0
bin	670	0
bin	672	0
statistic ethnet.server.eth[1].queue flowQueueingTime:histogram
field count 0
field mean nan
field stddev nan
field min nan
field max nan
field sum 0
field sqrsum 0
attr interpolationmode none
attr recordingmode histogram
attr source queueingTime(demuxFlow(packetPulled))
attr title "flow queueing times"
attr unit s
bin	-inf	0
bin	0	0
bin	1	0
scalar ethnet.server.eth[1].queue incomingPackets:count 3
attr recordingmode count
attr source packetPushStarted
attr title "incoming packets, count"
attr unit pk
scalar ethnet.server.eth[1].queue incomingPacketLengths:sum 1840
attr interpolationmode none
attr recordingmode sum
attr source packetLength(packetPushStarted)
attr title "incoming packet lengths, sum"
attr unit b
statistic ethnet.server.eth[1].queue incomingPacketLengths:histogram
field count 3
field mean 613.33333333333
field stddev 36.950417228137
field min 592
field max 656
field sum 1840
field sqrsum 1131264
attr interpolationmode none
attr recordingmode histogram
attr source packetLength(packetPushStarted)
attr title "incoming packet lengths"
attr unit b
bin	-inf	0
bin	576	0
bin	578	0
bin	580	0
bin	582	0
bin	584	0
bin	586	0
bin	588	0
bin	590	0
bin	592	2
bin	594	0
bin	596	0
bin	598	0
bin	600	0
bin	602	0
bin	604	0
bin	606	0
bin	608	0
bin	610	0
bin	612	0
bin	614	0
bin	616	0
bin	618	0
bin	620	0
bin	622	0
bin	624	0
bin	626	0
bin	628	0
bin	630	0
bin	632	0
bin	634	0
bin	636	0
bin	638	0
bin	640	0
bin	642	0
bin	644	0
bin	646	0
bin	648	0
bin	650	0
bin	652	0
bin	654	0
bin	656	1
bin	658	0
bin	660	0
bin	662	0
bin	664	0
bin	666	0
bin	668	0
bin	670	0
bin	672	0
scalar ethnet.server.eth[1].queue droppedPacketsQueueOverflow:count 0
attr interpolationmode none
attr recordingmode count
attr source packetDropReasonIsQueueOverflow(packetDropped)
attr title "dropped packets: queue overflow, count"
attr unit pk
scalar ethnet.server.eth[1].queue droppedPacketLengthsQueueOverflow:sum 0
attr interpolationmode none
attr recordingmode sum
attr source packetLength(packetDropReasonIsQueueOverflow(packetDropped))
attr title "dropped packet lengths: queue overflow, sum"
attr unit b
par ethnet.server.eth[1].mac typename "\"inet.linklayer.ethernet.basic.EthernetMac\""
par ethnet.server.eth[1].mac interfaceTableModule "\"ethnet.server.interfaceTable\""
par ethnet.server.eth[1].mac displayStringTextFormat "\"rate: %b\\nsent: %s, rcvd: %r\\nqueue: %q, drop: %d\""
par ethnet.server.eth[1].mac sendRawBytes false
par ethnet.server.eth[1].mac promiscuous false
par ethnet.server.eth[1].mac duplexMode true
par ethnet.server.eth[1].mac mtu 1500B
attr unit B
par ethnet.server.eth[1].mac fcsMode "\"declared\""
attr enum declared,computed
par ethnet.server.eth[1].mac stopOperationExtraTime -1s
attr unit s
par ethnet.server.eth[1].mac stopOperationTimeout 2s
attr unit s
scalar ethnet.server.eth[1].mac "simulated time" 10
scalar ethnet.server.eth[1].mac full-duplex 1
scalar ethnet.server.eth[1].mac "frames/sec sent" 0.3
scalar ethnet.server.eth[1].mac "frames/sec rcvd" 0.3
scalar ethnet.server.eth[1].mac "bits/sec sent" 184
scalar ethnet.server.eth[1].mac "bits/sec rcvd" 184
scalar ethnet.server.eth[1].mac "rx channel idle (%)" 99.9997968
scalar ethnet.server.eth[1].mac "rx channel utilization (%)" 0.0002032
scalar ethnet.server.eth[1].mac txPk:count 3
attr interpolationmode none
attr recordingmode count
attr source packetSentToLower
attr title "packets transmitted, count"
scalar ethnet.server.eth[1].mac txPk:sum(packetBytes) 230
attr interpolationmode none
attr recordingmode sum(packetBytes)
attr source packetSentToLower
attr title "packets transmitted, sum(packetBytes)"
scalar ethnet.server.eth[1].mac packetReceivedFromUpper:count 3
attr interpolationmode none
attr recordingmode count
attr source packetReceivedFromUpper
attr title "packet bytes from higher layer, count"
scalar ethnet.server.eth[1].mac packetReceivedFromUpper:sum(packetBytes) 230
attr interpolationmode none
attr recordingmode sum(packetBytes)
attr source packetReceivedFromUpper
attr title "packet bytes from higher layer, sum(packetBytes)"
scalar ethnet.server.eth[1].mac passedUpPk:count 3
attr interpolationmode none
attr recordingmode count
attr source packetSentToUpper
attr title "packets passed to higher layer, count"
scalar ethnet.server.eth[1].mac passedUpPk:sum(packetBytes) 230
attr interpolationmode none
attr recordingmode sum(packetBytes)
attr source packetSentToUpper
attr title "packets passed to higher layer, sum(packetBytes)"
scalar ethnet.server.eth[1].mac packetDropIncorrectlyReceived:count 0
attr interpolationmode none
attr recordingmode count
attr source packetDropReasonIsIncorrectlyReceived(packetDropped)
attr title "packet drop: incorrectly received, count"
scalar ethnet.server.eth[1].mac packetDropIncorrectlyReceived:sum(packetBytes) 0
attr interpolationmode none
attr recordingmode sum(packetBytes)
attr source packetDropReasonIsIncorrectlyReceived(packetDropped)
attr title "packet drop: incorrectly received, sum(packetBytes)"
scalar ethnet.server.eth[1].mac packetDropInterfaceDown:count 0
attr interpolationmode none
attr recordingmode count
attr source packetDropReasonIsInterfaceDown(packetDropped)
attr title "packet drop: interface down, count"
scalar ethnet.server.eth[1].mac packetDropInterfaceDown:sum(packetBytes) 0
attr interpolationmode none
attr recordingmode sum(packetBytes)
attr source packetDropReasonIsInterfaceDown(packetDropped)
attr title "packet drop: interface down, sum(packetBytes)"
scalar ethnet.server.eth[1].mac packetDropNotAddressedToUs:count 0
attr interpolationmode none
attr recordingmode count
attr source packetDropReasonIsNotAddressedToUs(packetDropped)
attr title "packet drop: not addressed to us, count"
scalar ethnet.server.eth[1].mac packetDropNotAddressedToUs:sum(packetBytes) 0
attr interpolationmode none
attr recordingmode sum(packetBytes)
attr source packetDropReasonIsNotAddressedToUs(packetDropped)
attr title "packet drop: not addressed to us, sum(packetBytes)"
scalar ethnet.server.eth[1].mac rxPausePkUnits:count 0
attr interpolationmode none
attr recordingmode count
attr title "pause units received, count"
scalar ethnet.server.eth[1].mac rxPausePkUnits:sum 0
attr interpolationmode none
attr recordingmode sum
attr title "pause units received, sum"
scalar ethnet.server.eth[1].mac txPausePkUnits:count 0
attr interpolationmode none
attr recordingmode count
attr title "pause units sent, count"
scalar ethnet.server.eth[1].mac txPausePkUnits:sum 0
attr interpolationmode none
attr recordingmode sum
attr title "pause units sent, sum"
scalar ethnet.server.eth[1].mac rxPkOk:count 3
attr interpolationmode none
attr recordingmode count
attr source rxPkOk
attr title "packets received OK, count"
scalar ethnet.server.eth[1].mac rxPkOk:sum(packetBytes) 230
attr interpolationmode none
attr recordingmode sum(packetBytes)
attr source rxPkOk
attr title "packets received OK, sum(packetBytes)"
par ethnet.server.eth[1] typename "\"inet.linklayer.ethernet.EthernetInterface\""
par ethnet.server.eth[1] displayStringTextFormat "\"%a (%i)\\n%m\""
par ethnet.server.eth[1] recordPcap false
par ethnet.server.eth[1] numPcapRecorders 0
par ethnet.server.eth[1] interfaceTableModule "\"ethnet.server.interfaceTable\""
par ethnet.server.eth[1] protocol "\"ethernetmac\""
par ethnet.server.eth[1] address "\"0A-AA-00-00-00-02\""
attr mutable ""
par ethnet.server.eth[1] duplexMode true
par ethnet.server.eth[1] csmacdSupport false
par ethnet.server.eth[1] bitrate 0bps
attr unit bps
par ethnet.server.eth[1] fcsMode "\"declared\""
attr enum declared,computed
scalar ethnet.server.eth[1] packetDropInterfaceDown:count 0
attr interpolationmode none
attr recordingmode count
attr source packetDropReasonIsInterfaceDown(packetDropped)
attr title "packet drops: interface down, count"
scalar ethnet.server.eth[1] packetDropInterfaceDown:sum(packetBytes) 0
attr interpolationmode none
attr recordingmode sum(packetBytes)
attr source packetDropReasonIsInterfaceDown(packetDropped)
attr title "packet drops: interface down, sum(packetBytes)"
scalar ethnet.server.eth[1] packetDropNoCarrier:count 0
attr interpolationmode none
attr recordingmode count
attr source packetDropReasonIsNoCarrier(packetDropped)
attr title "packet drops: no carrier, count"
scalar ethnet.server.eth[1] packetDropNoCarrier:sum(packetBytes) 0
attr interpolationmode none
attr recordingmode sum(packetBytes)
attr source packetDropReasonIsNoCarrier(packetDropped)
attr title "packet drops: no carrier, sum(packetBytes)"
par ethnet.server.eth[2].mac.phys$o.channel typename "\"ned.IdealChannel\""
par ethnet.server.eth[2].phys$i.channel typename "\"ned.IdealChannel\""
par ethnet.server.eth[2].upperLayerIn.channel typename "\"ned.IdealChannel\""
par ethnet.server.eth[2].mac.upperLayerOut.channel typename "\"ned.IdealChannel\""
par ethnet.server.eth[2].queue typename "\"inet.linklayer.ethernet.common.EthernetQueue\""
par ethnet.server.eth[2].queue displayStringTextFormat "\"contains %p pk (%l) pushed %u\\npulled %o removed %r dropped %d\""
par ethnet.server.eth[2].queue packetCapacity 1000
par ethnet.server.eth[2].queue dataCapacity -1b
attr unit b
par ethnet.server.eth[2].queue dropperClass "\"inet::queueing::PacketAtCollectionEndDropper\""
par ethnet.server.eth[2].queue comparatorClass "\"inet::EthernetFrameTypeComparator\""
par ethnet.server.eth[2].queue bufferModule "\"\""
scalar ethnet.server.eth[2].queue queueLength:last 0
attr autoWarmupFilter false
attr interpolationmode sample-hold
attr recordingmode last
attr source "warmup(atomic(constant0(packetPushEnded) + count(packetPushStarted) - count(packetPulled) - count(packetRemoved) - count(packetDropped)))"
attr title "queue length, last"
attr unit pk
scalar ethnet.server.eth[2].queue queueLength:max 0
attr autoWarmupFilter false
attr interpolationmode sample-hold
attr recordingmode max
attr source "warmup(atomic(constant0(packetPushEnded) + count(packetPushStarted) - count(packetPulled) - count(packetRemoved) - count(packetDropped)))"
attr title "queue length, max"
attr unit pk
scalar ethnet.server.eth[2].queue queueLength:timeavg 0
attr autoWarmupFilter false
attr interpolationmode sample-hold
attr recordingmode timeavg
attr source "warmup(atomic(constant0(packetPushEnded) + count(packetPushStarted) - count(packetPulled) - count(packetRemoved) - count(packetDropped)))"
attr title "queue length, timeavg"
attr unit pk
scalar ethnet.server.eth[2].queue queueBitLength:last 0
attr autoWarmupFilter false
attr interpolationmode sample-hold
attr recordingmode last
attr source "warmup(atomic(constant0(packetPushEnded) + sum(packetLength(packetPushStarted)) - sum(packetLength(packetPulled)) - sum(packetLength(packetRemoved)) - sum(packetLength(packetDropped))))"
attr title "queue bit length, last"
attr unit b
scalar ethnet.server.eth[2].queue queueBitLength:max 0
attr autoWarmupFilter false
attr interpolationmode sample-hold
attr recordingmode max
attr source "warmup(atomic(constant0(packetPushEnded) + sum(packetLength(packetPushStarted)) - sum(packetLength(packetPulled)) - sum(packetLength(packetRemoved)) - sum(packetLength(packetDropped))))"
attr title "queue bit length, max"
attr unit b
scalar ethnet.server.eth[2].queue queueBitLength:timeavg 0
attr autoWarmupFilter false
attr interpolationmode sample-hold
attr recordingmode timeavg
attr source "warmup(atomic(constant0(packetPushEnded) + sum(packetLength(packetPushStarted)) - sum(packetLength(packetPulled)) - sum(packetLength(packetRemoved)) - sum(packetLength(packetDropped))))"
attr title "queue bit length, timeavg"
attr unit b
statistic ethnet.server.eth[2].queue queueingTime:histogram
field count 3
field mean 0
field stddev 0
field min 0
field max 0
field sum 0
field sqrsum 0
attr interpolationmode none
attr recordingmode histogram
attr source queueingTime(packetPulled)
attr title "queueing times"
attr unit s
bin	-inf	0
bin	-0.5	0
bin	-0.48	0
bin	-0.46	0
bin	-0.44	0
bin	-0.42	0
bin	-0.4	0
bin	-0.38	0
bin	-0.36	0
bin	-0.34	0
bin	-0.32	0
bin	-0.3	0
bin	-0.28	0
bin	-0.26	0
bin	-0.24	0
bin	-0.22	0
bin	-0.2	0
bin	-0.18	0
bin	-0.16	0
bin	-0.14	0
bin	-0.12	0
bin	-0.1	0
bin	-0.08	0
bin	-0.06	0
bin	-0.04	0
bin	-0.02	0
bin	0	3
bin	0.02	0
bin	0.04	0
bin	0.06	0
bin	0.08	0
bin	0.1	0
bin	0.12	0
bin	0.14	0
bin	0.16	0
bin	0.18	0
bin	0.2	0
bin	0.22	0
bin	0.24	0
bin	0.26	0
bin	0.28	0
bin	0.3	0
bin	0.32	0
bin	0.34	0
bin	0.36	0
bin	0.38	0
bin	0.4	0
bin	0.42	0
bin	0.44	0
bin	0.46	0
bin	0.48	0
bin	0.5	0
scalar ethnet.server.eth[2].queue outgoingPackets:count 3
attr recordingmode count
attr source packetPulled
attr title "outgoing packets, count"
attr unit pk
scalar ethnet.server.eth[2].queue outgoingPacketLengths:sum 1840
attr interpolationmode none
attr recordingmode sum
attr source packetLength(packetPulled)
attr title "outgoing packet lengths, sum"
attr unit b
statistic ethnet.server.eth[2].queue outgoingPacketLengths:histogram
field count 3
field mean 613.33333333333
field stddev 36.950417228137
field min 592
field max 656
field sum 1840
field sqrsum 1131264
attr interpolationmode none
attr recordingmode histogram
attr source packetLength(packetPulled)
attr title "outgoing packet lengths"
attr unit b
bin	-inf	0
bin	576	0
bin	578	0
bin	580	0
bin	582	0
bin	584	0
bin	586	0
bin	588	0
bin	590	0
bin	592	2
bin	594	0
bin	596	0
bin	598	0
bin	600	0
bin	602	0
bin	604	0
bin	606	0
bin	608	0
bin	610	0
bin	612	0
bin	614	0
bin	616	0
bin	618	0
bin	620	0
bin	622	0
bin	624	0
bin	626	0
bin	628	0
bin	630	0
bin	632	0
bin	634	0
bin	636	0
bin	638	0
bin	640	0
bin	642	0
bin	644	0
bin	646	0
bin	648	0
bin	650	0
bin	652	0
bin	654	0
bin	656	1
bin	658	0
bin	660	0
bin	662	0
bin	664	0
bin	666	0
bin	668	0
bin	670	0
bin	672	0
statistic ethnet.server.eth[2].queue flowQueueingTime:histogram
field count 0
field mean nan
field stddev nan
field min nan
field max nan
field sum 0
field sqrsum 0
attr interpolationmode none
attr recordingmode histogram
attr source queueingTime(demuxFlow(packetPulled))
attr title "flow queueing times"
attr unit s
bin	-inf	0
bin	0	0
bin	1	0
scalar ethnet.server.eth[2].queue incomingPackets:count 3
attr recordingmode count
attr source packetPushStarted
attr title "incoming packets, count"
attr unit pk
scalar ethnet.server.eth[2].queue incomingPacketLengths:sum 1840
attr interpolationmode none
attr recordingmode sum
attr source packetLength(packetPushStarted)
attr title "incoming packet lengths, sum"
attr unit b
statistic ethnet.server.eth[2].queue incomingPacketLengths:histogram
field count 3
field mean 613.33333333333
field stddev 36.950417228137
field min 592
field max 656
field sum 1840
field sqrsum 1131264
attr interpolationmode none
attr recordingmode histogram
attr source packetLength(packetPushStarted)
attr title "incoming packet lengths"
attr unit b
bin	-inf	0
bin	576	0
bin	578	0
bin	580	0
bin	582	0
bin	584	0
bin	586	0
bin	588	0
bin	590	0
bin	592	2
bin	594	0
bin	596	0
bin	598	0
bin	600	0
bin	602	0
bin	604	0
bin	606	0
bin	608	0
bin	610	0
bin	612	0
bin	614	0
bin	616	0
bin	618	0
bin	620	0
bin	622	0
bin	624	0
bin	626	0
bin	628	0
bin	630	0
bin	632	0
bin	634	0
bin	636	0
bin	638	0
bin	640	0
bin	642	0
bin	644	0
bin	646	0
bin	648	0
bin	650	0
bin	652	0
bin	654	0
bin	656	1
bin	658	0
bin	660	0
bin	662	0
bin	664	0
bin	666	0
bin	668	0
bin	670	0
bin	672	0
scalar ethnet.server.eth[2].queue droppedPacketsQueueOverflow:count 0
attr interpolationmode none
attr recordingmode count
attr source packetDropReasonIsQueueOverflow(packetDropped)
attr title "dropped packets: queue overflow, count"
attr unit pk
scalar ethnet.server.eth[2].queue droppedPacketLengthsQueueOverflow:sum 0
attr interpolationmode none
attr recordingmode sum
attr source packetLength(packetDropReasonIsQueueOverflow(packetDropped))
attr title "dropped packet lengths: queue overflow, sum"
attr unit b
par ethnet.server.eth[2].mac typename "\"inet.linklayer.ethernet.basic.EthernetMac\""
par ethnet.server.eth[2].mac interfaceTableModule "\"ethnet.server.interfaceTable\""
par ethnet.server.eth[2].mac displayStringTextFormat "\"rate: %b\\nsent: %s, rcvd: %r\\nqueue: %q, drop: %d\""
par ethnet.server.eth[2].mac sendRawBytes false
par ethnet.server.eth[2].mac promiscuous false
par ethnet.server.eth[2].mac duplexMode true
par ethnet.server.eth[2].mac mtu 1500B
attr unit B
par ethnet.server.eth[2].mac fcsMode "\"declared\""
attr enum declared,computed
par ethnet.server.eth[2].mac stopOperationExtraTime -1s
attr unit s
par ethnet.server.eth[2].mac stopOperationTimeout 2s
attr unit s
scalar ethnet.server.eth[2].mac "simulated time" 10
scalar ethnet.server.eth[2].mac full-duplex 1
scalar ethnet.server.eth[2].mac "frames/sec sent" 0.3
scalar ethnet.server.eth[2].mac "frames/sec rcvd" 0.3
scalar ethnet.server.eth[2].mac "bits/sec sent" 184
scalar ethnet.server.eth[2].mac "bits/sec rcvd" 184
scalar ethnet.server.eth[2].mac "rx channel idle (%)" 99.9997968
scalar ethnet.server.eth[2].mac "rx channel utilization (%)" 0.0002032
scalar ethnet.server.eth[2].mac txPk:count 3
attr interpolationmode none
attr recordingmode count
attr source packetSentToLower
attr title "packets transmitted, count"
scalar ethnet.server.eth[2].mac txPk:sum(packetBytes) 230
attr interpolationmode none
attr recordingmode sum(packetBytes)
attr source packetSentToLower
attr title "packets transmitted, sum(packetBytes)"
scalar ethnet.server.eth[2].mac packetReceivedFromUpper:count 3
attr interpolationmode none
attr recordingmode count
attr source packetReceivedFromUpper
attr title "packet bytes from higher layer, count"
scalar ethnet.server.eth[2].mac packetReceivedFromUpper:sum(packetBytes) 230
attr interpolationmode none
attr recordingmode sum(packetBytes)
attr source packetReceivedFromUpper
attr title "packet bytes from higher layer, sum(packetBytes)"
scalar ethnet.server.eth[2].mac passedUpPk:count 3
attr interpolationmode none
attr recordingmode count
attr source packetSentToUpper
attr title "packets passed to higher layer, count"
scalar ethnet.server.eth[2].mac passedUpPk:sum(packetBytes) 230
attr interpolationmode none
attr recordingmode sum(packetBytes)
attr source packetSentToUpper
attr title "packets passed to higher layer, sum(packetBytes)"
scalar ethnet.server.eth[2].mac packetDropIncorrectlyReceived:count 0
attr interpolationmode none
attr recordingmode count
attr source packetDropReasonIsIncorrectlyReceived(packetDropped)
attr title "packet drop: incorrectly received, count"
scalar ethnet.server.eth[2].mac packetDropIncorrectlyReceived:sum(packetBytes) 0
attr interpolationmode none
attr recordingmode sum(packetBytes)
attr source packetDropReasonIsIncorrectlyReceived(packetDropped)
attr title "packet drop: incorrectly received, sum(packetBytes)"
scalar ethnet.server.eth[2].mac packetDropInterfaceDown:count 0
attr interpolationmode none
attr recordingmode count
attr source packetDropReasonIsInterfaceDown(packetDropped)
attr title "packet drop: interface down, count"
scalar ethnet.server.eth[2].mac packetDropInterfaceDown:sum(packetBytes) 0
attr interpolationmode none
attr recordingmode sum(packetBytes)
attr source packetDropReasonIsInterfaceDown(packetDropped)
attr title "packet drop: interface down, sum(packetBytes)"
scalar ethnet.server.eth[2].mac packetDropNotAddressedToUs:count 0
attr interpolationmode none
attr recordingmode count
attr source packetDropReasonIsNotAddressedToUs(packetDropped)
attr title "packet drop: not addressed to us, count"
scalar ethnet.server.eth[2].mac packetDropNotAddressedToUs:sum(packetBytes) 0
attr interpolationmode none
attr recordingmode sum(packetBytes)
attr source packetDropReasonIsNotAddressedToUs(packetDropped)
attr title "packet drop: not addressed to us, sum(packetBytes)"
scalar ethnet.server.eth[2].mac rxPausePkUnits:count 0
attr interpolationmode none
attr recordingmode count
attr title "pause units received, count"
scalar ethnet.server.eth[2].mac rxPausePkUnits:sum 0
attr interpolationmode none
attr recordingmode sum
attr title "pause units received, sum"
scalar ethnet.server.eth[2].mac txPausePkUnits:count 0
attr interpolationmode none
attr recordingmode count
attr title "pause units sent, count"
scalar ethnet.server.eth[2].mac txPausePkUnits:sum 0
attr interpolationmode none
attr recordingmode sum
attr title "pause units sent, sum"
scalar ethnet.server.eth[2].mac rxPkOk:count 3
attr interpolationmode none
attr recordingmode count
attr source rxPkOk
attr title "packets received OK, count"
scalar ethnet.server.eth[2].mac rxPkOk:sum(packetBytes) 230
attr interpolationmode none
attr recordingmode sum(packetBytes)
attr source rxPkOk
attr title "packets received OK, sum(packetBytes)"
par ethnet.server.eth[2] typename "\"inet.linklayer.ethernet.EthernetInterface\""
par ethnet.server.eth[2] displayStringTextFormat "\"%a (%i)\\n%m\""
par ethnet.server.eth[2] recordPcap false
par ethnet.server.eth[2] numPcapRecorders 0
par ethnet.server.eth[2] interfaceTableModule "\"ethnet.server.interfaceTable\""
par ethnet.server.eth[2] protocol "\"ethernetmac\""
par ethnet.server.eth[2] address "\"0A-AA-00-00-00-03\""
attr mutable ""
par ethnet.server.eth[2] duplexMode true
par ethnet.server.eth[2] csmacdSupport false
par ethnet.server.eth[2] bitrate 0bps
attr unit bps
par ethnet.server.eth[2] fcsMode "\"declared\""
attr enum declared,computed
scalar ethnet.server.eth[2] packetDropInterfaceDown:count 0
attr interpolationmode none
attr recordingmode count
attr source packetDropReasonIsInterfaceDown(packetDropped)
attr title "packet drops: interface down, count"
scalar ethnet.server.eth[2] packetDropInterfaceDown:sum(packetBytes) 0
attr interpolationmode none
attr recordingmode sum(packetBytes)
attr source packetDropReasonIsInterfaceDown(packetDropped)
attr title "packet drops: interface down, sum(packetBytes)"
scalar ethnet.server.eth[2] packetDropNoCarrier:count 0
attr interpolationmode none
attr recordingmode count
attr source packetDropReasonIsNoCarrier(packetDropped)
attr title "packet drops: no carrier, count"
scalar ethnet.server.eth[2] packetDropNoCarrier:sum(packetBytes) 0
attr interpolationmode none
attr recordingmode sum(packetBytes)
attr source packetDropReasonIsNoCarrier(packetDropped)
attr title "packet drops: no carrier, sum(packetBytes)"
par ethnet.server.eth[3].mac.phys$o.channel typename "\"ned.IdealChannel\""
par ethnet.server.eth[3].phys$i.channel typename "\"ned.IdealChannel\""
par ethnet.server.eth[3].upperLayerIn.channel typename "\"ned.IdealChannel\""
par ethnet.server.eth[3].mac.upperLayerOut.channel typename "\"ned.IdealChannel\""
par ethnet.server.eth[3].queue typename "\"inet.linklayer.ethernet.common.EthernetQueue\""
par ethnet.server.eth[3].queue displayStringTextFormat "\"contains %p pk (%l) pushed %u\\npulled %o removed %r dropped %d\""
par ethnet.server.eth[3].queue packetCapacity 1000
par ethnet.server.eth[3].queue dataCapacity -1b
attr unit b
par ethnet.server.eth[3].queue dropperClass "\"inet::queueing::PacketAtCollectionEndDropper\""
par ethnet.server.eth[3].queue comparatorClass "\"inet::EthernetFrameTypeComparator\""
par ethnet.server.eth[3].queue bufferModule "\"\""
scalar ethnet.server.eth[3].queue queueLength:last 0
attr autoWarmupFilter false
attr interpolationmode sample-hold
attr recordingmode last
attr source "warmup(atomic(constant0(packetPushEnded) + count(packetPushStarted) - count(packetPulled) - count(packetRemoved) - count(packetDropped)))"
attr title "queue length, last"
attr unit pk
scalar ethnet.server.eth[3].queue queueLength:max 0
attr autoWarmupFilter false
attr interpolationmode sample-hold
attr recordingmode max
attr source "warmup(atomic(constant0(packetPushEnded) + count(packetPushStarted) - count(packetPulled) - count(packetRemoved) - count(packetDropped)))"
attr title "queue length, max"
attr unit pk
scalar ethnet.server.eth[3].queue queueLength:timeavg 0
attr autoWarmupFilter false
attr interpolationmode sample-hold
attr recordingmode timeavg
attr source "warmup(atomic(constant0(packetPushEnded) + count(packetPushStarted) - count(packetPulled) - count(packetRemoved) - count(packetDropped)))"
attr title "queue length, timeavg"
attr unit pk
scalar ethnet.server.eth[3].queue queueBitLength:last 0
attr autoWarmupFilter false
attr interpolationmode sample-hold
attr recordingmode last
attr source "warmup(atomic(constant0(packetPushEnded) + sum(packetLength(packetPushStarted)) - sum(packetLength(packetPulled)) - sum(packetLength(packetRemoved)) - sum(packetLength(packetDropped))))"
attr title "queue bit length, last"
attr unit b
scalar ethnet.server.eth[3].queue queueBitLength:max 0
attr autoWarmupFilter false
attr interpolationmode sample-hold
attr recordingmode max
attr source "warmup(atomic(constant0(packetPushEnded) + sum(packetLength(packetPushStarted)) - sum(packetLength(packetPulled)) - sum(packetLength(packetRemoved)) - sum(packetLength(packetDropped))))"
attr title "queue bit length, max"
attr unit b
scalar ethnet.server.eth[3].queue queueBitLength:timeavg 0
attr autoWarmupFilter false
attr interpolationmode sample-hold
attr recordingmode timeavg
attr source "warmup(atomic(constant0(packetPushEnded) + sum(packetLength(packetPushStarted)) - sum(packetLength(packetPulled)) - sum(packetLength(packetRemoved)) - sum(packetLength(packetDropped))))"
attr title "queue bit length, timeavg"
attr unit b
statistic ethnet.server.eth[3].queue queueingTime:histogram
field count 3
field mean 0
field stddev 0
field min 0
field max 0
field sum 0
field sqrsum 0
attr interpolationmode none
attr recordingmode histogram
attr source queueingTime(packetPulled)
attr title "queueing times"
attr unit s
bin	-inf	0
bin	-0.5	0
bin	-0.48	0
bin	-0.46	0
bin	-0.44	0
bin	-0.42	0
bin	-0.4	0
bin	-0.38	0
bin	-0.36	0
bin	-0.34	0
bin	-0.32	0
bin	-0.3	0
bin	-0.28	0
bin	-0.26	0
bin	-0.24	0
bin	-0.22	0
bin	-0.2	0
bin	-0.18	0
bin	-0.16	0
bin	-0.14	0
bin	-0.12	0
bin	-0.1	0
bin	-0.08	0
bin	-0.06	0
bin	-0.04	0
bin	-0.02	0
bin	0	3
bin	0.02	0
bin	0.04	0
bin	0.06	0
bin	0.08	0
bin	0.1	0
bin	0.12	0
bin	0.14	0
bin	0.16	0
bin	0.18	0
bin	0.2	0
bin	0.22	0
bin	0.24	0
bin	0.26	0
bin	0.28	0
bin	0.3	0
bin	0.32	0
bin	0.34	0
bin	0.36	0
bin	0.38	0
bin	0.4	0
bin	0.42	0
bin	0.44	0
bin	0.46	0
bin	0.48	0
bin	0.5	0
scalar ethnet.server.eth[3].queue outgoingPackets:count 3
attr recordingmode count
attr source packetPulled
attr title "outgoing packets, count"
attr unit pk
scalar ethnet.server.eth[3].queue outgoingPacketLengths:sum 1840
attr interpolationmode none
attr recordingmode sum
attr source packetLength(packetPulled)
attr title "outgoing packet lengths, sum"
attr unit b
statistic ethnet.server.eth[3].queue outgoingPacketLengths:histogram
field count 3
field mean 613.33333333333
field stddev 36.950417228137
field min 592
field max 656
field sum 1840
field sqrsum 1131264
attr interpolationmode none
attr recordingmode histogram
attr source packetLength(packetPulled)
attr title "outgoing packet lengths"
attr unit b
bin	-inf	0
bin	576	0
bin	578	0
bin	580	0
bin	582	0
bin	584	0
bin	586	0
bin	588	0
bin	590	0
bin	592	2
bin	594	0
bin	596	0
bin	598	0
bin	600	0
bin	602	0
bin	604	0
bin	606	0
bin	608	0
bin	610	0
bin	612	0
bin	614	0
bin	616	0
bin	618	0
bin	620	0
bin	622	0
bin	624	0
bin	626	0
bin	628	0
bin	630	0
bin	632	0
bin	634	0
bin	636	0
bin	638	0
bin	640	0
bin	642	0
bin	644	0
bin	646	0
bin	648	0
bin	650	0
bin	652	0
bin	654	0
bin	656	1
bin	658	0
bin	660	0
bin	662	0
bin	664	0
bin	666	0
bin	668	0
bin	670	0
bin	672	0
statistic ethnet.server.eth[3].queue flowQueueingTime:histogram
field count 0
field mean nan
field stddev nan
field min nan
field max nan
field sum 0
field sqrsum 0
attr interpolationmode none
attr recordingmode histogram
attr source queueingTime(demuxFlow(packetPulled))
attr title "flow queueing times"
attr unit s
bin	-inf	0
bin	0	0
bin	1	0
scalar ethnet.server.eth[3].queue incomingPackets:count 3
attr recordingmode count
attr source packetPushStarted
attr title "incoming packets, count"
attr unit pk
scalar ethnet.server.eth[3].queue incomingPacketLengths:sum 1840
attr interpolationmode none
attr recordingmode sum
attr source packetLength(packetPushStarted)
attr title "incoming packet lengths, sum"
attr unit b
statistic ethnet.server.eth[3].queue incomingPacketLengths:histogram
field count 3
field mean 613.33333333333
field stddev 36.950417228137
field min 592
field max 656
field sum 1840
field sqrsum 1131264
attr interpolationmode none
attr recordingmode histogram
attr source packetLength(packetPushStarted)
attr title "incoming packet lengths"
attr unit b
bin	-inf	0
bin	576	0
bin	578	0
bin	580	0
bin	582	0
bin	584	0
bin	586	0
bin	588	0
bin	590	0
bin	592	2
bin	594	0
bin	596	0
bin	598	0
bin	600	0
bin	602	0
bin	604	0
bin	606	0
bin	608	0
bin	610	0
bin	612	0
bin	614	0
bin	616	0
bin	618	0
bin	620	0
bin	622	0
bin	624	0
bin	626	0
bin	628	0
bin	630	0
bin	632	0
bin	634	0
bin	636	0
bin	638	0
bin	640	0
bin	642	0
bin	644	0
bin	646	0
bin	648	0
bin	650	0
bin	652	0
bin	654	0
bin	656	1
bin	658	0
bin	660	0
bin	662	0
bin	664	0
bin	666	0
bin	668	0
bin	670	0
bin	672	0
scalar ethnet.server.eth[3].queue droppedPacketsQueueOverflow:count 0
attr interpolationmode none
attr recordingmode count
attr source packetDropReasonIsQueueOverflow(packetDropped)
attr title "dropped packets: queue overflow, count"
attr unit pk
scalar ethnet.server.eth[3].queue droppedPacketLengthsQueueOverflow:sum 0
attr interpolationmode none
attr recordingmode sum
attr source packetLength(packetDropReasonIsQueueOverflow(packetDropped))
attr title "dropped packet lengths: queue overflow, sum"
attr unit b
par ethnet.server.eth[3].mac typename "\"inet.linklayer.ethernet.basic.EthernetMac\""
par ethnet.server.eth[3].mac interfaceTableModule "\"ethnet.server.interfaceTable\""
par ethnet.server.eth[3].mac displayStringTextFormat "\"rate: %b\\nsent: %s, rcvd: %r\\nqueue: %q, drop: %d\""
par ethnet.server.eth[3].mac sendRawBytes false
par ethnet.server.eth[3].mac promiscuous false
par ethnet.server.eth[3].mac duplexMode true
par ethnet.server.eth[3].mac mtu 1500B
attr unit B
par ethnet.server.eth[3].mac fcsMode "\"declared\""
attr enum declared,computed
par ethnet.server.eth[3].mac stopOperationExtraTime -1s
attr unit s
par ethnet.server.eth[3].mac stopOperationTimeout 2s
attr unit s
scalar ethnet.server.eth[3].mac "simulated time" 10
scalar ethnet.server.eth[3].mac full-duplex 1
scalar ethnet.server.eth[3].mac "frames/sec sent" 0.3
scalar ethnet.server.eth[3].mac "frames/sec rcvd" 0.3
scalar ethnet.server.eth[3].mac "bits/sec sent" 184
scalar ethnet.server.eth[3].mac "bits/sec rcvd" 184
scalar ethnet.server.eth[3].mac "rx channel idle (%)" 99.9997968
scalar ethnet.server.eth[3].mac "rx channel utilization (%)" 0.0002032
scalar ethnet.server.eth[3].mac txPk:count 3
attr interpolationmode none
attr recordingmode count
attr source packetSentToLower
attr title "packets transmitted, count"
scalar ethnet.server.eth[3].mac txPk:sum(packetBytes) 230
attr interpolationmode none
attr recordingmode sum(packetBytes)
attr source packetSentToLower
attr title "packets transmitted, sum(packetBytes)"
scalar ethnet.server.eth[3].mac packetReceivedFromUpper:count 3
attr interpolationmode none
attr recordingmode count
attr source packetReceivedFromUpper
attr title "packet bytes from higher layer, count"
scalar ethnet.server.eth[3].mac packetReceivedFromUpper:sum(packetBytes) 230
attr interpolationmode none
attr recordingmode sum(packetBytes)
attr source packetReceivedFromUpper
attr title "packet bytes from higher layer, sum(packetBytes)"
scalar ethnet.server.eth[3].mac passedUpPk:count 3
attr interpolationmode none
attr recordingmode count
attr source packetSentToUpper
attr title "packets passed to higher layer, count"
scalar ethnet.server.eth[3].mac passedUpPk:sum(packetBytes) 230
attr interpolationmode none
attr recordingmode sum(packetBytes)
attr source packetSentToUpper
attr title "packets passed to higher layer, sum(packetBytes)"
scalar ethnet.server.eth[3].mac packetDropIncorrectlyReceived:count 0
attr interpolationmode none
attr recordingmode count
attr source packetDropReasonIsIncorrectlyReceived(packetDropped)
attr title "packet drop: incorrectly received, count"
scalar ethnet.server.eth[3].mac packetDropIncorrectlyReceived:sum(packetBytes) 0
attr interpolationmode none
attr recordingmode sum(packetBytes)
attr source packetDropReasonIsIncorrectlyReceived(packetDropped)
attr title "packet drop: incorrectly received, sum(packetBytes)"
scalar ethnet.server.eth[3].mac packetDropInterfaceDown:count 0
attr interpolationmode none
attr recordingmode count
attr source packetDropReasonIsInterfaceDown(packetDropped)
attr title "packet drop: interface down, count"
scalar ethnet.server.eth[3].mac packetDropInterfaceDown:sum(packetBytes) 0
attr interpolationmode none
attr recordingmode sum(packetBytes)
attr source packetDropReasonIsInterfaceDown(packetDropped)
attr title "packet drop: interface down, sum(packetBytes)"
scalar ethnet.server.eth[3].mac packetDropNotAddressedToUs:count 0
attr interpolationmode none
attr recordingmode count
attr source packetDropReasonIsNotAddressedToUs(packetDropped)
attr title "packet drop: not addressed to us, count"
scalar ethnet.server.eth[3].mac packetDropNotAddressedToUs:sum(packetBytes) 0
attr interpolationmode none
attr recordingmode sum(packetBytes)
attr source packetDropReasonIsNotAddressedToUs(packetDropped)
attr title "packet drop: not addressed to us, sum(packetBytes)"
scalar ethnet.server.eth[3].mac rxPausePkUnits:count 0
attr interpolationmode none
attr recordingmode count
attr title "pause units received, count"
scalar ethnet.server.eth[3].mac rxPausePkUnits:sum 0
attr interpolationmode none
attr recordingmode sum
attr title "pause units received, sum"
scalar ethnet.server.eth[3].mac txPausePkUnits:count 0
attr interpolationmode none
attr recordingmode count
attr title "pause units sent, count"
scalar ethnet.server.eth[3].mac txPausePkUnits:sum 0
attr interpolationmode none
attr recordingmode sum
attr title "pause units sent, sum"
scalar ethnet.server.eth[3].mac rxPkOk:count 3
attr interpolationmode none
attr recordingmode count
attr source rxPkOk
attr title "packets received OK, count"
scalar ethnet.server.eth[3].mac rxPkOk:sum(packetBytes) 230
attr interpolationmode none
attr recordingmode sum(packetBytes)
attr source rxPkOk
attr title "packets received OK, sum(packetBytes)"
par ethnet.server.eth[3] typename "\"inet.linklayer.ethernet.EthernetInterface\""
par ethnet.server.eth[3] displayStringTextFormat "\"%a (%i)\\n%m\""
par ethnet.server.eth[3] recordPcap false
par ethnet.server.eth[3] numPcapRecorders 0
par ethnet.server.eth[3] interfaceTableModule "\"ethnet.server.interfaceTable\""
par ethnet.server.eth[3] protocol "\"ethernetmac\""
par ethnet.server.eth[3] address "\"0A-AA-00-00-00-04\""
attr mutable ""
par ethnet.server.eth[3] duplexMode true
par ethnet.server.eth[3] csmacdSupport false
par ethnet.server.eth[3] bitrate 0bps
attr unit bps
par ethnet.server.eth[3] fcsMode "\"declared\""
attr enum declared,computed
scalar ethnet.server.eth[3] packetDropInterfaceDown:count 0
attr interpolationmode none
attr recordingmode count
attr source packetDropReasonIsInterfaceDown(packetDropped)
attr title "packet drops: interface down, count"
scalar ethnet.server.eth[3] packetDropInterfaceDown:sum(packetBytes) 0
attr interpolationmode none
attr recordingmode sum(packetBytes)
attr source packetDropReasonIsInterfaceDown(packetDropped)
attr title "packet drops: interface down, sum(packetBytes)"
scalar ethnet.server.eth[3] packetDropNoCarrier:count 0
attr interpolationmode none
attr recordingmode count
attr source packetDropReasonIsNoCarrier(packetDropped)
attr title "packet drops: no carrier, count"
scalar ethnet.server.eth[3] packetDropNoCarrier:sum(packetBytes) 0
attr interpolationmode none
attr recordingmode sum(packetBytes)
attr source packetDropReasonIsNoCarrier(packetDropped)
attr title "packet drops: no carrier, sum(packetBytes)"
par ethnet.server.ipv6.transportIn.channel typename "\"ned.IdealChannel\""
par ethnet.server.ipv6.up.out[0].channel typename "\"ned.IdealChannel\""
par ethnet.server.ipv6.ipv6.queueOut.channel typename "\"ned.IdealChannel\""
par ethnet.server.ipv6.ifIn.channel typename "\"ned.IdealChannel\""
par ethnet.server.ipv6.routingTable typename "\"inet.networklayer.ipv6.Ipv6RoutingTable\""
par ethnet.server.ipv6.routingTable interfaceTableModule "\"ethnet.server.interfaceTable\""
par ethnet.server.ipv6.routingTable ipv6TunnelingModule "\"ethnet.server.ipv6.iptunneling\""
par ethnet.server.ipv6.routingTable routes "<routingTable/> at content:1"
par ethnet.server.ipv6.routingTable forwarding false
par ethnet.server.ipv6.routingTable isRouter false
par ethnet.server.ipv6.routingTable multicastForwarding false
par ethnet.server.ipv6.routingTable useAdminDist false
par ethnet.server.ipv6.up typename "\"inet.common.MessageDispatcher\""
par ethnet.server.ipv6.up displayStringTextFormat "\"processed %p pk (%l)\""
par ethnet.server.ipv6.up forwardServiceRegistration true
par ethnet.server.ipv6.up forwardProtocolRegistration true
par ethnet.server.ipv6.icmpv6 typename "\"inet.networklayer.icmpv6.Icmpv6\""
par ethnet.server.ipv6.icmpv6 interfaceTableModule "\"ethnet.server.interfaceTable\""
par ethnet.server.ipv6.icmpv6 crcMode "\"declared\""
attr enum declared,computed
par ethnet.server.ipv6.lp typename "\"inet.common.MessageDispatcher\""
par ethnet.server.ipv6.lp displayStringTextFormat "\"processed %p pk (%l)\""
par ethnet.server.ipv6.lp forwardServiceRegistration true
par ethnet.server.ipv6.lp forwardProtocolRegistration true
par ethnet.server.ipv6.neighbourDiscovery typename "\"inet.networklayer.icmpv6.Ipv6NeighbourDiscovery\""
par ethnet.server.ipv6.neighbourDiscovery interfaceTableModule "\"ethnet.server.interfaceTable\""
par ethnet.server.ipv6.neighbourDiscovery crcMode "\"declared\""
attr enum declared,computed
par ethnet.server.ipv6.neighbourDiscovery icmpv6Module "\"ethnet.server.ipv6.icmpv6\""
par ethnet.server.ipv6.neighbourDiscovery xmipv6Module "\"\""
par ethnet.server.ipv6.neighbourDiscovery routingTableModule "\"ethnet.server.ipv6.routingTable\""
par ethnet.server.ipv6.neighbourDiscovery minIntervalBetweenRAs 0.03s
attr unit s
par ethnet.server.ipv6.neighbourDiscovery maxIntervalBetweenRAs 0.07s
attr unit s
scalar ethnet.server.ipv6.neighbourDiscovery startDad:count 4
attr recordingmode count
attr title "DAD started, count"
par ethnet.server.ipv6.ipv6 typename "\"inet.networklayer.ipv6.Ipv6\""
par ethnet.server.ipv6.ipv6 interfaceTableModule "\"ethnet.server.interfaceTable\""
par ethnet.server.ipv6.ipv6 routingTableModule "\"ethnet.server.ipv6.routingTable\""
par ethnet.server.ipv6.ipv6 ipv6NeighbourDiscoveryModule "\"ethnet.server.ipv6.neighbourDiscovery\""
par ethnet.server.ipv6.ipv6 icmpv6Module "\"ethnet.server.ipv6.icmpv6\""
par ethnet.server.ipv6.ipv6 ipv6TunnelingModule "\"ethnet.server.ipv6.iptunneling\""
par ethnet.server.ipv6.ipv6 procDelay 0s
attr unit s
par ethnet.server.ipv6.iptunneling typename "\"inet.networklayer.ipv6tunneling.Ipv6Tunneling\""
par ethnet.server.ipv6.iptunneling interfaceTableModule "\"ethnet.server.interfaceTable\""
par ethnet.server.ipv6.iptunneling routingTableModule "\"ethnet.server.ipv6.routingTable\""
par ethnet.server.ipv6.iptunneling xmipv6Module "\"\""
par ethnet.server.ipv6 typename "\"inet.networklayer.ipv6.Ipv6NetworkLayer\""
par ethnet.server.ipv6 xMIPv6Support false
par ethnet.server.ipv6 forwarding false
par ethnet.server.ipv6 multicastForwarding false
par ethnet.server.ipv6 interfaceTableModule "\"ethnet.server.interfaceTable\""
par ethnet.server.nl typename "\"inet.common.MessageDispatcher\""
par ethnet.server.nl displayStringTextFormat "\"processed %p pk (%l)\""
par ethnet.server.nl forwardServiceRegistration true
par ethnet.server.nl forwardProtocolRegistration true
par ethnet.server.udp typename "\"inet.transportlayer.udp.Udp\""
par ethnet.server.udp interfaceTableModule "\"ethnet.server.interfaceTable\""
par ethnet.server.udp icmpModule "\"^.ipv4.icmp\""
par ethnet.server.udp icmpv6Module "\"^.ipv6.icmpv6\""
par ethnet.server.udp crcMode "\"declared\""
attr enum disabled,declared,computed
par ethnet.server.udp defaultMulticastLoop true
scalar ethnet.server.udp packetReceived:count 0
attr interpolationmode none
attr recordingmode count
attr source packetReceived
attr title "packets received, count"
scalar ethnet.server.udp packetReceived:sum(packetBytes) 0
attr interpolationmode none
attr recordingmode sum(packetBytes)
attr source packetReceived
attr title "packets received, sum(packetBytes)"
scalar ethnet.server.udp packetSent:count 0
attr interpolationmode none
attr recordingmode count
attr source packetSent
attr title "packets sent, count"
scalar ethnet.server.udp packetSent:sum(packetBytes) 0
attr interpolationmode none
attr recordingmode sum(packetBytes)
attr source packetSent
attr title "packets sent, sum(packetBytes)"
scalar ethnet.server.udp passedUpPk:count 0
attr interpolationmode none
attr recordingmode count
attr source packetSentToUpper
attr title "packets passed up, count"
scalar ethnet.server.udp droppedPkWrongPort:count 0
attr interpolationmode none
attr recordingmode count
attr source packetDropReasonIsNoPortFound(packetDropped)
attr title "packets dropped (wrong port), count"
scalar ethnet.server.udp droppedPkBadChecksum:count 0
attr interpolationmode none
attr recordingmode count
attr source packetDropReasonIsIncorrectlyReceived(packetDropped)
attr title "packets dropped (checksum error), count"
par ethnet.server.tcp.conn-0 typename "\"inet.transportlayer.tcp.TcpConnection\""
par ethnet.server.tcp typename "\"inet.transportlayer.tcp.Tcp\""
par ethnet.server.tcp crcMode "\"declared\""
attr enum declared,computed
par ethnet.server.tcp advertisedWindow 7504
par ethnet.server.tcp delayedAcksEnabled false
par ethnet.server.tcp nagleEnabled true
par ethnet.server.tcp limitedTransmitEnabled false
par ethnet.server.tcp increasedIWEnabled false
par ethnet.server.tcp sackSupport false
par ethnet.server.tcp windowScalingSupport false
par ethnet.server.tcp windowScalingFactor -1
par ethnet.server.tcp timestampSupport false
par ethnet.server.tcp mss 536
par ethnet.server.tcp msl 120s
attr unit s
par ethnet.server.tcp tcpAlgorithmClass "\"TcpReno\""
attr enum TcpVegas,TcpWestwood,TcpNewReno,TcpReno,TcpTahoe,TcpNoCongestionControl
par ethnet.server.tcp useDataNotification false
par ethnet.server.tcp dupthresh 3
par ethnet.server.tcp initialSsthresh 4294967295
par ethnet.server.tcp stopOperationExtraTime 0s
attr unit s
par ethnet.server.tcp stopOperationTimeout 2s
attr unit s
par ethnet.server.tcp ecnWillingness false
par ethnet.server.tcp dctcpGamma 0.0625
par ethnet.server.tn typename "\"inet.common.MessageDispatcher\""
par ethnet.server.tn displayStringTextFormat "\"processed %p pk (%l)\""
par ethnet.server.tn forwardServiceRegistration true
par ethnet.server.tn forwardProtocolRegistration true
par ethnet.server.app[0] typename "\"inet.applications.tcpapp.TcpEchoApp\""
par ethnet.server.app[0] localAddress "\"\""
par ethnet.server.app[0] localPort 1000
par ethnet.server.app[0] serverThreadModuleType "\"inet.applications.tcpapp.TcpEchoAppThread\""
par ethnet.server.app[0] stopOperationExtraTime -1s
attr unit s
par ethnet.server.app[0] stopOperationTimeout 2s
attr unit s
par ethnet.server.app[0] echoFactor 1
par ethnet.server.app[0] echoDelay 0s
attr unit s
scalar ethnet.server.app[0] bytesRcvd 0
scalar ethnet.server.app[0] bytesSent 0
scalar ethnet.server.app[0] packetReceived:count 0
attr interpolationmode none
attr recordingmode count
attr source packetReceived
attr title "packets received, count"
scalar ethnet.server.app[0] packetReceived:sum(packetBytes) 0
attr interpolationmode none
attr recordingmode sum(packetBytes)
attr source packetReceived
attr title "packets received, sum(packetBytes)"
statistic ethnet.server.app[0] endToEndDelay:histogram
field count 0
field mean nan
field stddev nan
field min nan
field max nan
field sum 0
field sqrsum 0
attr interpolationmode none
attr recordingmode histogram
attr source dataAge(packetReceived)
attr title "end-to-end delay"
attr unit s
bin	-inf	0
bin	0	0
bin	1	0
statistic ethnet.server.app[0] endToEndDelay:weightedHistogram
field count 0
field mean nan
field stddev nan
field min nan
field max nan
field weights 0
field weightedSum 0
field sqrSumWeights 0
field weightedSqrSum 0
attr interpolationmode none
attr recordingmode weightedHistogram
attr source dataAge(packetReceived)
attr title "end-to-end delay, weightedHistogram"
attr unit s
bin	-inf	0
bin	0	0
bin	1	0
scalar ethnet.server.app[0] packetSent:count 0
attr interpolationmode none
attr recordingmode count
attr source packetSent
attr title "packets sent, count"
scalar ethnet.server.app[0] packetSent:sum(packetBytes) 0
attr interpolationmode none
attr recordingmode sum(packetBytes)
attr source packetSent
attr title "packets sent, sum(packetBytes)"
par ethnet.server.at typename "\"inet.common.MessageDispatcher\""
par ethnet.server.at displayStringTextFormat "\"processed %p pk (%l)\""
par ethnet.server.at forwardServiceRegistration true
par ethnet.server.at forwardProtocolRegistration true
par ethnet.server typename "\"inet.node.ipv6.StandardHost6\""
par ethnet.server hasStatus false
par ethnet.server osgModel "\"\""
par ethnet.server osgModelColor "\"\""
par ethnet.server canvasImage "\"\""
par ethnet.server canvasImageColor "\"\""
par ethnet.server recordPcap false
par ethnet.server numPcapRecorders 0
par ethnet.server numLoInterfaces 1
par ethnet.server numWlanInterfaces 0
par ethnet.server numEthInterfaces 0
par ethnet.server numPppInterfaces 0
par ethnet.server numTunInterfaces 0
par ethnet.server numVirtInterfaces 0
par ethnet.server fcsMode "\"declared\""
attr enum declared,computed
par ethnet.server hasIpv4 false
par ethnet.server hasIpv6 true
par ethnet.server hasGn false
par ethnet.server forwarding false
par ethnet.server multicastForwarding false
par ethnet.server hasUdp true
par ethnet.server hasTcp true
par ethnet.server hasSctp false
par ethnet.server numApps 1
par ethnet.server routes "<routingTable/> at content:1"
par ethnet.client3.ethg$i[0].channel typename "\"ned.IdealChannel\""
par ethnet.client3.eth[0].phys$o.channel typename "\"ned.IdealChannel\""
par ethnet.client3.interfaceTable typename "\"inet.networklayer.common.InterfaceTable\""
par ethnet.client3.interfaceTable displayAddresses false
par ethnet.client3.cb typename "\"inet.common.MessageDispatcher\""
par ethnet.client3.cb displayStringTextFormat "\"processed %p pk (%l)\""
par ethnet.client3.cb forwardServiceRegistration true
par ethnet.client3.cb forwardProtocolRegistration true
par ethnet.client3.bl typename "\"inet.common.MessageDispatcher\""
par ethnet.client3.bl displayStringTextFormat "\"processed %p pk (%l)\""
par ethnet.client3.bl forwardServiceRegistration true
par ethnet.client3.bl forwardProtocolRegistration true
par ethnet.client3.ethernet typename "\"inet.linklayer.ethernet.basic.EthernetEncapsulation\""
par ethnet.client3.ethernet registerProtocol true
par ethnet.client3.ethernet interfaceTableModule "\"ethnet.client3.interfaceTable\""
par ethnet.client3.ethernet fcsMode "\"declared\""
attr enum declared,computed
par ethnet.client3.ethernet stopOperationExtraTime -1s
attr unit s
par ethnet.client3.ethernet stopOperationTimeout 2s
attr unit s
scalar ethnet.client3.ethernet decapPk:count 3
attr interpolationmode none
attr recordingmode count
attr source decapPk
attr title "packets decapsulated, count"
scalar ethnet.client3.ethernet decapPk:sum(packetBytes) 176
attr interpolationmode none
attr recordingmode sum(packetBytes)
attr source decapPk
attr title "packets decapsulated, sum(packetBytes)"
scalar ethnet.client3.ethernet encapPk:count 3
attr interpolationmode none
attr recordingmode count
attr source encapPk
attr title "packets encapsulated, count"
scalar ethnet.client3.ethernet encapPk:sum(packetBytes) 176
attr interpolationmode none
attr recordingmode sum(packetBytes)
attr source encapPk
attr title "packets encapsulated, sum(packetBytes)"
scalar ethnet.client3.ethernet pauseSent:count 0
attr recordingmode count
attr title "pause sent, count"
scalar ethnet.client3.ethernet pauseSent:sum 0
attr recordingmode sum
attr title "pause sent, sum"
par ethnet.client3.li typename "\"inet.common.MessageDispatcher\""
par ethnet.client3.li displayStringTextFormat "\"processed %p pk (%l)\""
par ethnet.client3.li forwardServiceRegistration true
[...]
attr title "queue bit length, max"
attr unit b
scalar ethnet.client4.eth[0].queue queueBitLength:timeavg 0
attr autoWarmupFilter false
attr interpolationmode sample-hold
attr recordingmode timeavg
attr source "warmup(atomic(constant0(packetPushEnded) + sum(packetLength(packetPushStarted)) - sum(packetLength(packetPulled)) - sum(packetLength(packetRemoved)) - sum(packetLength(packetDropped))))"
attr title "queue bit length, timeavg"
attr unit b
statistic ethnet.client4.eth[0].queue queueingTime:histogram
field count 3
field mean 0
field stddev 0
field min 0
field max 0
field sum 0
field sqrsum 0
attr interpolationmode none
attr recordingmode histogram
attr source queueingTime(packetPulled)
attr title "queueing times"
attr unit s
bin	-inf	0
bin	-0.5	0
bin	-0.48	0
bin	-0.46	0
bin	-0.44	0
bin	-0.42	0
bin	-0.4	0
bin	-0.38	0
bin	-0.36	0
bin	-0.34	0
bin	-0.32	0
bin	-0.3	0
bin	-0.28	0
bin	-0.26	0
bin	-0.24	0
bin	-0.22	0
bin	-0.2	0
bin	-0.18	0
bin	-0.16	0
bin	-0.14	0
bin	-0.12	0
bin	-0.1	0
bin	-0.08	0
bin	-0.06	0
bin	-0.04	0
bin	-0.02	0
bin	0	3
bin	0.02	0
bin	0.04	0
bin	0.06	0
bin	0.08	0
bin	0.1	0
bin	0.12	0
bin	0.14	0
bin	0.16	0
bin	0.18	0
bin	0.2	0
bin	0.22	0
bin	0.24	0
bin	0.26	0
bin	0.28	0
bin	0.3	0
bin	0.32	0
bin	0.34	0
bin	0.36	0
bin	0.38	0
bin	0.4	0
bin	0.42	0
bin	0.44	0
bin	0.46	0
bin	0.48	0
bin	0.5	0
scalar ethnet.client4.eth[0].queue outgoingPackets:count 3
attr recordingmode count
attr source packetPulled
attr title "outgoing packets, count"
attr unit pk
scalar ethnet.client4.eth[0].queue outgoingPacketLengths:sum 1840
attr interpolationmode none
attr recordingmode sum
attr source packetLength(packetPulled)
attr title "outgoing packet lengths, sum"
attr unit b
statistic ethnet.client4.eth[0].queue outgoingPacketLengths:histogram
field count 3
field mean 613.33333333333
field stddev 36.950417228137
field min 592
field max 656
field sum 1840
field sqrsum 1131264
attr interpolationmode none
attr recordingmode histogram
attr source packetLength(packetPulled)
attr title "outgoing packet lengths"
attr unit b
bin	-inf	0
bin	576	0
bin	578	0
bin	580	0
bin	582	0
bin	584	0
bin	586	0
bin	588	0
bin	590	0
bin	592	2
bin	594	0
bin	596	0
bin	598	0
bin	600	0
bin	602	0
bin	604	0
bin	606	0
bin	608	0
bin	610	0
bin	612	0
bin	614	0
bin	616	0
bin	618	0
bin	620	0
bin	622	0
bin	624	0
bin	626	0
bin	628	0
bin	630	0
bin	632	0
bin	634	0
bin	636	0
bin	638	0
bin	640	0
bin	642	0
bin	644	0
bin	646	0
bin	648	0
bin	650	0
bin	652	0
bin	654	0
bin	656	1
bin	658	0
bin	660	0
bin	662	0
bin	664	0
bin	666	0
bin	668	0
bin	670	0
bin	672	0
statistic ethnet.client4.eth[0].queue flowQueueingTime:histogram
field count 0
field mean nan
field stddev nan
field min nan
field max nan
field sum 0
field sqrsum 0
attr interpolationmode none
attr recordingmode histogram
attr source queueingTime(demuxFlow(packetPulled))
attr title "flow queueing times"
attr unit s
bin	-inf	0
bin	0	0
bin	1	0
scalar ethnet.client4.eth[0].queue incomingPackets:count 3
attr recordingmode count
attr source packetPushStarted
attr title "incoming packets, count"
attr unit pk
scalar ethnet.client4.eth[0].queue incomingPacketLengths:sum 1840
attr interpolationmode none
attr recordingmode sum
attr source packetLength(packetPushStarted)
attr title "incoming packet lengths, sum"
attr unit b
statistic ethnet.client4.eth[0].queue incomingPacketLengths:histogram
field count 3
field mean 613.33333333333
field stddev 36.950417228137
field min 592
field max 656
field sum 1840
field sqrsum 1131264
attr interpolationmode none
attr recordingmode histogram
attr source packetLength(packetPushStarted)
attr title "incoming packet lengths"
attr unit b
bin	-inf	0
bin	576	0
bin	578	0
bin	580	0
bin	582	0
bin	584	0
bin	586	0
bin	588	0
bin	590	0
bin	592	2
bin	594	0
bin	596	0
bin	598	0
bin	600	0
bin	602	0
bin	604	0
bin	606	0
bin	608	0
bin	610	0
bin	612	0
bin	614	0
bin	616	0
bin	618	0
bin	620	0
bin	622	0
bin	624	0
bin	626	0
bin	628	0
bin	630	0
bin	632	0
bin	634	0
bin	636	0
bin	638	0
bin	640	0
bin	642	0
bin	644	0
bin	646	0
bin	648	0
bin	650	0
bin	652	0
bin	654	0
bin	656	1
bin	658	0
bin	660	0
bin	662	0
bin	664	0
bin	666	0
bin	668	0
bin	670	0
bin	672	0
scalar ethnet.client4.eth[0].queue droppedPacketsQueueOverflow:count 0
attr interpolationmode none
attr recordingmode count
attr source packetDropReasonIsQueueOverflow(packetDropped)
attr title "dropped packets: queue overflow, count"
attr unit pk
scalar ethnet.client4.eth[0].queue droppedPacketLengthsQueueOverflow:sum 0
attr interpolationmode none
attr recordingmode sum
attr source packetLength(packetDropReasonIsQueueOverflow(packetDropped))
attr title "dropped packet lengths: queue overflow, sum"
attr unit b
par ethnet.client4.eth[0].mac typename "\"inet.linklayer.ethernet.basic.EthernetMac\""
par ethnet.client4.eth[0].mac interfaceTableModule "\"ethnet.client4.interfaceTable\""
par ethnet.client4.eth[0].mac displayStringTextFormat "\"rate: %b\\nsent: %s, rcvd: %r\\nqueue: %q, drop: %d\""
par ethnet.client4.eth[0].mac sendRawBytes false
par ethnet.client4.eth[0].mac promiscuous false
par ethnet.client4.eth[0].mac duplexMode true
par ethnet.client4.eth[0].mac mtu 1500B
attr unit B
par ethnet.client4.eth[0].mac fcsMode "\"declared\""
attr enum declared,computed
par ethnet.client4.eth[0].mac stopOperationExtraTime -1s
attr unit s
par ethnet.client4.eth[0].mac stopOperationTimeout 2s
attr unit s
scalar ethnet.client4.eth[0].mac "simulated time" 10
scalar ethnet.client4.eth[0].mac full-duplex 1
scalar ethnet.client4.eth[0].mac "frames/sec sent" 0.3
scalar ethnet.client4.eth[0].mac "frames/sec rcvd" 0.3
scalar ethnet.client4.eth[0].mac "bits/sec sent" 184
scalar ethnet.client4.eth[0].mac "bits/sec rcvd" 184
scalar ethnet.client4.eth[0].mac "rx channel idle (%)" 99.9997968
scalar ethnet.client4.eth[0].mac "rx channel utilization (%)" 0.0002032
scalar ethnet.client4.eth[0].mac txPk:count 3
attr interpolationmode none
attr recordingmode count
attr source packetSentToLower
attr title "packets transmitted, count"
scalar ethnet.client4.eth[0].mac txPk:sum(packetBytes) 230
attr interpolationmode none
attr recordingmode sum(packetBytes)
attr source packetSentToLower
attr title "packets transmitted, sum(packetBytes)"
scalar ethnet.client4.eth[0].mac packetReceivedFromUpper:count 3
attr interpolationmode none
attr recordingmode count
attr source packetReceivedFromUpper
attr title "packet bytes from higher layer, count"
scalar ethnet.client4.eth[0].mac packetReceivedFromUpper:sum(packetBytes) 230
attr interpolationmode none
attr recordingmode sum(packetBytes)
attr source packetReceivedFromUpper
attr title "packet bytes from higher layer, sum(packetBytes)"
scalar ethnet.client4.eth[0].mac passedUpPk:count 3
attr interpolationmode none
attr recordingmode count
attr source packetSentToUpper
attr title "packets passed to higher layer, count"
scalar ethnet.client4.eth[0].mac passedUpPk:sum(packetBytes) 230
attr interpolationmode none
attr recordingmode sum(packetBytes)
attr source packetSentToUpper
attr title "packets passed to higher layer, sum(packetBytes)"
scalar ethnet.client4.eth[0].mac packetDropIncorrectlyReceived:count 0
attr interpolationmode none
attr recordingmode count
attr source packetDropReasonIsIncorrectlyReceived(packetDropped)
attr title "packet drop: incorrectly received, count"
scalar ethnet.client4.eth[0].mac packetDropIncorrectlyReceived:sum(packetBytes) 0
attr interpolationmode none
attr recordingmode sum(packetBytes)
attr source packetDropReasonIsIncorrectlyReceived(packetDropped)
attr title "packet drop: incorrectly received, sum(packetBytes)"
scalar ethnet.client4.eth[0].mac packetDropInterfaceDown:count 0
attr interpolationmode none
attr recordingmode count
attr source packetDropReasonIsInterfaceDown(packetDropped)
attr title "packet drop: interface down, count"
scalar ethnet.client4.eth[0].mac packetDropInterfaceDown:sum(packetBytes) 0
attr interpolationmode none
attr recordingmode sum(packetBytes)
attr source packetDropReasonIsInterfaceDown(packetDropped)
attr title "packet drop: interface down, sum(packetBytes)"
scalar ethnet.client4.eth[0].mac packetDropNotAddressedToUs:count 0
attr interpolationmode none
attr recordingmode count
attr source packetDropReasonIsNotAddressedToUs(packetDropped)
attr title "packet drop: not addressed to us, count"
scalar ethnet.client4.eth[0].mac packetDropNotAddressedToUs:sum(packetBytes) 0
attr interpolationmode none
attr recordingmode sum(packetBytes)
attr source packetDropReasonIsNotAddressedToUs(packetDropped)
attr title "packet drop: not addressed to us, sum(packetBytes)"
scalar ethnet.client4.eth[0].mac rxPausePkUnits:count 0
attr interpolationmode none
attr recordingmode count
attr title "pause units received, count"
scalar ethnet.client4.eth[0].mac rxPausePkUnits:sum 0
attr interpolationmode none
attr recordingmode sum
attr title "pause units received, sum"
scalar ethnet.client4.eth[0].mac txPausePkUnits:count 0
attr interpolationmode none
attr recordingmode count
attr title "pause units sent, count"
scalar ethnet.client4.eth[0].mac txPausePkUnits:sum 0
attr interpolationmode none
attr recordingmode sum
attr title "pause units sent, sum"
scalar ethnet.client4.eth[0].mac rxPkOk:count 3
attr interpolationmode none
attr recordingmode count
attr source rxPkOk
attr title "packets received OK, count"
scalar ethnet.client4.eth[0].mac rxPkOk:sum(packetBytes) 230
attr interpolationmode none
attr recordingmode sum(packetBytes)
attr source rxPkOk
attr title "packets received OK, sum(packetBytes)"
par ethnet.client4.eth[0] typename "\"inet.linklayer.ethernet.EthernetInterface\""
par ethnet.client4.eth[0] displayStringTextFormat "\"%a (%i)\\n%m\""
par ethnet.client4.eth[0] recordPcap false
par ethnet.client4.eth[0] numPcapRecorders 0
par ethnet.client4.eth[0] interfaceTableModule "\"ethnet.client4.interfaceTable\""
par ethnet.client4.eth[0] protocol "\"ethernetmac\""
par ethnet.client4.eth[0] address "\"0A-AA-00-00-00-08\""
attr mutable ""
par ethnet.client4.eth[0] duplexMode true
par ethnet.client4.eth[0] csmacdSupport false
par ethnet.client4.eth[0] bitrate 0bps
attr unit bps
par ethnet.client4.eth[0] fcsMode "\"declared\""
attr enum declared,computed
scalar ethnet.client4.eth[0] packetDropInterfaceDown:count 0
attr interpolationmode none
attr recordingmode count
attr source packetDropReasonIsInterfaceDown(packetDropped)
attr title "packet drops: interface down, count"
scalar ethnet.client4.eth[0] packetDropInterfaceDown:sum(packetBytes) 0
attr interpolationmode none
attr recordingmode sum(packetBytes)
attr source packetDropReasonIsInterfaceDown(packetDropped)
attr title "packet drops: interface down, sum(packetBytes)"
scalar ethnet.client4.eth[0] packetDropNoCarrier:count 0
attr interpolationmode none
attr recordingmode count
attr source packetDropReasonIsNoCarrier(packetDropped)
attr title "packet drops: no carrier, count"
scalar ethnet.client4.eth[0] packetDropNoCarrier:sum(packetBytes) 0
attr interpolationmode none
attr recordingmode sum(packetBytes)
attr source packetDropReasonIsNoCarrier(packetDropped)
attr title "packet drops: no carrier, sum(packetBytes)"
par ethnet.client4.ipv6.transportIn.channel typename "\"ned.IdealChannel\""
par ethnet.client4.ipv6.up.out[0].channel typename "\"ned.IdealChannel\""
par ethnet.client4.ipv6.ipv6.queueOut.channel typename "\"ned.IdealChannel\""
par ethnet.client4.ipv6.ifIn.channel typename "\"ned.IdealChannel\""
par ethnet.client4.ipv6.routingTable typename "\"inet.networklayer.ipv6.Ipv6RoutingTable\""
par ethnet.client4.ipv6.routingTable interfaceTableModule "\"ethnet.client4.interfaceTable\""
par ethnet.client4.ipv6.routingTable ipv6TunnelingModule "\"ethnet.client4.ipv6.iptunneling\""
par ethnet.client4.ipv6.routingTable routes "<routingTable/> at content:1"
par ethnet.client4.ipv6.routingTable forwarding false
par ethnet.client4.ipv6.routingTable isRouter false
par ethnet.client4.ipv6.routingTable multicastForwarding false
par ethnet.client4.ipv6.routingTable useAdminDist false
par ethnet.client4.ipv6.up typename "\"inet.common.MessageDispatcher\""
par ethnet.client4.ipv6.up displayStringTextFormat "\"processed %p pk (%l)\""
par ethnet.client4.ipv6.up forwardServiceRegistration true
par ethnet.client4.ipv6.up forwardProtocolRegistration true
par ethnet.client4.ipv6.icmpv6 typename "\"inet.networklayer.icmpv6.Icmpv6\""
par ethnet.client4.ipv6.icmpv6 interfaceTableModule "\"ethnet.client4.interfaceTable\""
par ethnet.client4.ipv6.icmpv6 crcMode "\"declared\""
attr enum declared,computed
par ethnet.client4.ipv6.lp typename "\"inet.common.MessageDispatcher\""
par ethnet.client4.ipv6.lp displayStringTextFormat "\"processed %p pk (%l)\""
par ethnet.client4.ipv6.lp forwardServiceRegistration true
par ethnet.client4.ipv6.lp forwardProtocolRegistration true
par ethnet.client4.ipv6.neighbourDiscovery typename "\"inet.networklayer.icmpv6.Ipv6NeighbourDiscovery\""
par ethnet.client4.ipv6.neighbourDiscovery interfaceTableModule "\"ethnet.client4.interfaceTable\""
par ethnet.client4.ipv6.neighbourDiscovery crcMode "\"declared\""
attr enum declared,computed
par ethnet.client4.ipv6.neighbourDiscovery icmpv6Module "\"ethnet.client4.ipv6.icmpv6\""
par ethnet.client4.ipv6.neighbourDiscovery xmipv6Module "\"\""
par ethnet.client4.ipv6.neighbourDiscovery routingTableModule "\"ethnet.client4.ipv6.routingTable\""
par ethnet.client4.ipv6.neighbourDiscovery minIntervalBetweenRAs 0.03s
attr unit s
par ethnet.client4.ipv6.neighbourDiscovery maxIntervalBetweenRAs 0.07s
attr unit s
scalar ethnet.client4.ipv6.neighbourDiscovery startDad:count 1
attr recordingmode count
attr title "DAD started, count"
par ethnet.client4.ipv6.ipv6 typename "\"inet.networklayer.ipv6.Ipv6\""
par ethnet.client4.ipv6.ipv6 interfaceTableModule "\"ethnet.client4.interfaceTable\""
par ethnet.client4.ipv6.ipv6 routingTableModule "\"ethnet.client4.ipv6.routingTable\""
par ethnet.client4.ipv6.ipv6 ipv6NeighbourDiscoveryModule "\"ethnet.client4.ipv6.neighbourDiscovery\""
par ethnet.client4.ipv6.ipv6 icmpv6Module "\"ethnet.client4.ipv6.icmpv6\""
par ethnet.client4.ipv6.ipv6 ipv6TunnelingModule "\"ethnet.client4.ipv6.iptunneling\""
par ethnet.client4.ipv6.ipv6 procDelay 0s
attr unit s
par ethnet.client4.ipv6.iptunneling typename "\"inet.networklayer.ipv6tunneling.Ipv6Tunneling\""
par ethnet.client4.ipv6.iptunneling interfaceTableModule "\"ethnet.client4.interfaceTable\""
par ethnet.client4.ipv6.iptunneling routingTableModule "\"ethnet.client4.ipv6.routingTable\""
par ethnet.client4.ipv6.iptunneling xmipv6Module "\"\""
par ethnet.client4.ipv6 typename "\"inet.networklayer.ipv6.Ipv6NetworkLayer\""
par ethnet.client4.ipv6 xMIPv6Support false
par ethnet.client4.ipv6 forwarding false
par ethnet.client4.ipv6 multicastForwarding false
par ethnet.client4.ipv6 interfaceTableModule "\"ethnet.client4.interfaceTable\""
par ethnet.client4.nl typename "\"inet.common.MessageDispatcher\""
par ethnet.client4.nl displayStringTextFormat "\"processed %p pk (%l)\""
par ethnet.client4.nl forwardServiceRegistration true
par ethnet.client4.nl forwardProtocolRegistration true
par ethnet.client4.udp typename "\"inet.transportlayer.udp.Udp\""
par ethnet.client4.udp interfaceTableModule "\"ethnet.client4.interfaceTable\""
par ethnet.client4.udp icmpModule "\"^.ipv4.icmp\""
par ethnet.client4.udp icmpv6Module "\"^.ipv6.icmpv6\""
par ethnet.client4.udp crcMode "\"declared\""
attr enum disabled,declared,computed
par ethnet.client4.udp defaultMulticastLoop true
scalar ethnet.client4.udp packetReceived:count 0
attr interpolationmode none
attr recordingmode count
attr source packetReceived
attr title "packets received, count"
scalar ethnet.client4.udp packetReceived:sum(packetBytes) 0
attr interpolationmode none
attr recordingmode sum(packetBytes)
attr source packetReceived
attr title "packets received, sum(packetBytes)"
scalar ethnet.client4.udp packetSent:count 0
attr interpolationmode none
attr recordingmode count
attr source packetSent
attr title "packets sent, count"
scalar ethnet.client4.udp packetSent:sum(packetBytes) 0
attr interpolationmode none
attr recordingmode sum(packetBytes)
attr source packetSent
attr title "packets sent, sum(packetBytes)"
scalar ethnet.client4.udp passedUpPk:count 0
attr interpolationmode none
attr recordingmode count
attr source packetSentToUpper
attr title "packets passed up, count"
scalar ethnet.client4.udp droppedPkWrongPort:count 0
attr interpolationmode none
attr recordingmode count
attr source packetDropReasonIsNoPortFound(packetDropped)
attr title "packets dropped (wrong port), count"
scalar ethnet.client4.udp droppedPkBadChecksum:count 0
attr interpolationmode none
attr recordingmode count
attr source packetDropReasonIsIncorrectlyReceived(packetDropped)
attr title "packets dropped (checksum error), count"
par ethnet.client4.tcp typename "\"inet.transportlayer.tcp.Tcp\""
par ethnet.client4.tcp crcMode "\"declared\""
attr enum declared,computed
par ethnet.client4.tcp advertisedWindow 7504
par ethnet.client4.tcp delayedAcksEnabled false
par ethnet.client4.tcp nagleEnabled true
par ethnet.client4.tcp limitedTransmitEnabled false
par ethnet.client4.tcp increasedIWEnabled false
par ethnet.client4.tcp sackSupport false
par ethnet.client4.tcp windowScalingSupport false
par ethnet.client4.tcp windowScalingFactor -1
par ethnet.client4.tcp timestampSupport false
par ethnet.client4.tcp mss 536
par ethnet.client4.tcp msl 120s
attr unit s
par ethnet.client4.tcp tcpAlgorithmClass "\"TcpReno\""
attr enum TcpVegas,TcpWestwood,TcpNewReno,TcpReno,TcpTahoe,TcpNoCongestionControl
par ethnet.client4.tcp useDataNotification false
par ethnet.client4.tcp dupthresh 3
par ethnet.client4.tcp initialSsthresh 4294967295
par ethnet.client4.tcp stopOperationExtraTime 0s
attr unit s
par ethnet.client4.tcp stopOperationTimeout 2s
attr unit s
par ethnet.client4.tcp ecnWillingness false
par ethnet.client4.tcp dctcpGamma 0.0625
par ethnet.client4.tn typename "\"inet.common.MessageDispatcher\""
par ethnet.client4.tn displayStringTextFormat "\"processed %p pk (%l)\""
par ethnet.client4.tn forwardServiceRegistration true
par ethnet.client4.tn forwardProtocolRegistration true
par ethnet.client4.at typename "\"inet.common.MessageDispatcher\""
par ethnet.client4.at displayStringTextFormat "\"processed %p pk (%l)\""
par ethnet.client4.at forwardServiceRegistration true
par ethnet.client4.at forwardProtocolRegistration true
par ethnet.client4 typename "\"inet.node.ipv6.StandardHost6\""
par ethnet.client4 hasStatus false
par ethnet.client4 osgModel "\"\""
par ethnet.client4 osgModelColor "\"\""
par ethnet.client4 canvasImage "\"\""
par ethnet.client4 canvasImageColor "\"\""
par ethnet.client4 recordPcap false
par ethnet.client4 numPcapRecorders 0
par ethnet.client4 numLoInterfaces 1
par ethnet.client4 numWlanInterfaces 0
par ethnet.client4 numEthInterfaces 0
par ethnet.client4 numPppInterfaces 0
par ethnet.client4 numTunInterfaces 0
par ethnet.client4 numVirtInterfaces 0
par ethnet.client4 fcsMode "\"declared\""
attr enum declared,computed
par ethnet.client4 hasIpv4 false
par ethnet.client4 hasIpv6 true
par ethnet.client4 hasGn false
par ethnet.client4 forwarding false
par ethnet.client4 multicastForwarding false
par ethnet.client4 hasUdp true
par ethnet.client4 hasTcp true
par ethnet.client4 hasSctp false
par ethnet.client4 numApps 0
par ethnet.client4 routes "<routingTable/> at content:1"
par ethnet typename "\"ethnet4.simulations.ethnet\""

